/*---------------------------------------------------------------------------*\
| =========                 |                                                 |
| \\      /  F ield         | OpenFOAM: The Open Source CFD Toolbox           |
|  \\    /   O peration     | Version:  2.3.1                                 |
|   \\  /    A nd           | Web:      www.OpenFOAM.org                      |
|    \\/     M anipulation  |                                                 |
\*---------------------------------------------------------------------------*/
Build  : 2.3.1-262087cdf8db
Exec   : linearisedPimpleDyMFoam
Date   : Jun 06 2023
Time   : 02:12:32
Host   : "jcosson-VirtualBox"
PID    : 24362
Case   : /home/jcosson/workspace/henersj_shootingdata/calcs/moderate_deformed/primal/100_intervals_05-06-23/sweep54/interval78
nProcs : 1
sigFpe : Enabling floating point exception trapping (FOAM_SIGFPE).
fileModificationChecking : Monitoring run-time modified files using timeStampMaster
allowSystemOperations : Allowing user-supplied system call operations

// * * * * * * * * * * * * * * * * * * * * * * * * * * * * * * * * * * * * * //
Create time

Create mesh for time = 0.477

Selecting dynamicFvMesh dynamicMotionSolverFvMesh
Selecting motion solver: displacementLaplacian
Selecting motion diffusion: quadratic
Selecting motion diffusion: quadratic
Selecting motion diffusion: inverseDistance
Reading field linP

Reading field linU

starte createPhia.H

Reading/calculating face flux field linPhi

Adjungierte Interpolation durchgefuehrt

createPhia.H verlassen

setRefCell ausgefuehrt

No finite volume options present


PIMPLE: no residual control data found. Calculations will employ 3 corrector loops


Starting time loop

Time = 0.478

Reading field p

Reading field U

Read primal fluxes 

Reading primal face flux fields phi/meshPhi

Created primal fluxes 

Selecting incompressible transport model Newtonian
singlePhaseTransportModel gewaehlt 

Selecting turbulence model type RASModel
Selecting RAS turbulence model kOmegaSST
bounding k, min: 0 max: 0.000734969 average: 0.000160778
kOmegaSSTCoeffs
{
    alphaK1         0.85034;
    alphaK2         1;
    alphaOmega1     0.5;
    alphaOmega2     0.85616;
    gamma1          0.5532;
    gamma2          0.4403;
    beta1           0.075;
    beta2           0.0828;
    betaStar        0.09;
    a1              0.31;
    c1              10;
    Cmu             0.09;
    b1              1;
    F3              false;
}

autoPtr ausgefuehrt

Reading/calculating face velocity Uf

Init adjoint face velocity linUf

Courant Number mean: 0.17208 max: 0.378532
Adjoint Courant Number mean: 0.000121769 max: 0.00153143
GAMG:  Solving for cellDisplacementx, Initial residual = 0, Final residual = 0, No Iterations 0
GAMG:  Solving for cellDisplacementy, Initial residual = 0, Final residual = 0, No Iterations 0
GAMG:  Solving for cellDisplacementz, Initial residual = 0, Final residual = 0, No Iterations 0
PIMPLE: iteration 1
DILUPBiCG:  Solving for linUx, Initial residual = 0.0267298, Final residual = 9.69537e-05, No Iterations 1
DILUPBiCG:  Solving for linUy, Initial residual = 0.0528228, Final residual = 0.000141101, No Iterations 1
DILUPBiCG:  Solving for linUz, Initial residual = 0.108452, Final residual = 0.000230504, No Iterations 1
GAMG:  Solving for linP, Initial residual = 1, Final residual = 0.0089637, No Iterations 2
GAMG:  Solving for linP, Initial residual = 0.0146075, Final residual = 9.35252e-05, No Iterations 4
GAMG:  Solving for linP, Initial residual = 0.00491092, Final residual = 4.02038e-05, No Iterations 3
Adjoint continuity errors : sum local = 4.60841e-09, global = -4.89566e-11, cumulative = -4.89566e-11
GAMG:  Solving for linP, Initial residual = 0.030423, Final residual = 0.00023781, No Iterations 3
GAMG:  Solving for linP, Initial residual = 0.00351834, Final residual = 2.26364e-05, No Iterations 4
GAMG:  Solving for linP, Initial residual = 0.00123532, Final residual = 4.69543e-06, No Iterations 4
Adjoint continuity errors : sum local = 5.1716e-10, global = -1.39293e-11, cumulative = -6.2886e-11
PIMPLE: iteration 2
DILUPBiCG:  Solving for linUx, Initial residual = 0.00226159, Final residual = 9.11168e-05, No Iterations 1
DILUPBiCG:  Solving for linUy, Initial residual = 0.00453867, Final residual = 3.94115e-05, No Iterations 1
DILUPBiCG:  Solving for linUz, Initial residual = 0.00789444, Final residual = 2.24503e-05, No Iterations 1
GAMG:  Solving for linP, Initial residual = 0.0301127, Final residual = 9.1098e-05, No Iterations 3
GAMG:  Solving for linP, Initial residual = 0.00183914, Final residual = 1.08191e-05, No Iterations 4
GAMG:  Solving for linP, Initial residual = 0.000540309, Final residual = 1.79565e-06, No Iterations 4
Adjoint continuity errors : sum local = 2.04455e-10, global = 2.63582e-11, cumulative = -3.65278e-11
GAMG:  Solving for linP, Initial residual = 0.00143698, Final residual = 1.08919e-05, No Iterations 3
GAMG:  Solving for linP, Initial residual = 0.000308487, Final residual = 1.80914e-06, No Iterations 4
GAMG:  Solving for linP, Initial residual = 0.0001011, Final residual = 7.39657e-07, No Iterations 3
Adjoint continuity errors : sum local = 8.41452e-11, global = 3.10818e-12, cumulative = -3.34196e-11
PIMPLE: iteration 3
DILUPBiCG:  Solving for linUx, Initial residual = 0.000311762, Final residual = 2.68583e-06, No Iterations 1
DILUPBiCG:  Solving for linUy, Initial residual = 0.000576651, Final residual = 6.84771e-06, No Iterations 1
DILUPBiCG:  Solving for linUz, Initial residual = 0.000919416, Final residual = 6.59393e-06, No Iterations 1
GAMG:  Solving for linP, Initial residual = 0.0375176, Final residual = 0.000255588, No Iterations 2
GAMG:  Solving for linP, Initial residual = 0.00127448, Final residual = 5.15634e-06, No Iterations 4
GAMG:  Solving for linP, Initial residual = 0.000428344, Final residual = 3.99367e-06, No Iterations 3
Adjoint continuity errors : sum local = 4.71586e-10, global = -3.4489e-11, cumulative = -6.79086e-11
GAMG:  Solving for linP, Initial residual = 0.00157874, Final residual = 7.55719e-06, No Iterations 3
GAMG:  Solving for linP, Initial residual = 0.000156453, Final residual = 6.8326e-07, No Iterations 4
GAMG:  Solving for linP, Initial residual = 5.56919e-05, Final residual = 7.33931e-07, No Iterations 3
Adjoint continuity errors : sum local = 8.68563e-11, global = 1.04907e-11, cumulative = -5.74179e-11
ExecutionTime = 11.72 s  ClockTime = 12 s

End

