/*---------------------------------------------------------------------------*\
| =========                 |                                                 |
| \\      /  F ield         | OpenFOAM: The Open Source CFD Toolbox           |
|  \\    /   O peration     | Version:  2.3.1                                 |
|   \\  /    A nd           | Web:      www.OpenFOAM.org                      |
|    \\/     M anipulation  |                                                 |
\*---------------------------------------------------------------------------*/
Build  : 2.3.1-262087cdf8db
Exec   : linearisedPimpleDyMFoam
Date   : Jun 06 2023
Time   : 02:12:32
Host   : "jcosson-VirtualBox"
PID    : 24364
Case   : /home/jcosson/workspace/henersj_shootingdata/calcs/moderate_deformed/primal/100_intervals_05-06-23/sweep54/interval80
nProcs : 1
sigFpe : Enabling floating point exception trapping (FOAM_SIGFPE).
fileModificationChecking : Monitoring run-time modified files using timeStampMaster
allowSystemOperations : Allowing user-supplied system call operations

// * * * * * * * * * * * * * * * * * * * * * * * * * * * * * * * * * * * * * //
Create time

Create mesh for time = 0.479

Selecting dynamicFvMesh dynamicMotionSolverFvMesh
Selecting motion solver: displacementLaplacian
Selecting motion diffusion: quadratic
Selecting motion diffusion: quadratic
Selecting motion diffusion: inverseDistance
Reading field linP

Reading field linU

starte createPhia.H

Reading/calculating face flux field linPhi

Adjungierte Interpolation durchgefuehrt

createPhia.H verlassen

setRefCell ausgefuehrt

No finite volume options present


PIMPLE: no residual control data found. Calculations will employ 3 corrector loops


Starting time loop

Time = 0.48

Reading field p

Reading field U

Read primal fluxes 

Reading primal face flux fields phi/meshPhi

Created primal fluxes 

Selecting incompressible transport model Newtonian
singlePhaseTransportModel gewaehlt 

Selecting turbulence model type RASModel
Selecting RAS turbulence model kOmegaSST
bounding k, min: 0 max: 0.000720859 average: 0.000158892
kOmegaSSTCoeffs
{
    alphaK1         0.85034;
    alphaK2         1;
    alphaOmega1     0.5;
    alphaOmega2     0.85616;
    gamma1          0.5532;
    gamma2          0.4403;
    beta1           0.075;
    beta2           0.0828;
    betaStar        0.09;
    a1              0.31;
    c1              10;
    Cmu             0.09;
    b1              1;
    F3              false;
}

autoPtr ausgefuehrt

Reading/calculating face velocity Uf

Init adjoint face velocity linUf

Courant Number mean: 0.161074 max: 0.353126
Adjoint Courant Number mean: 0.000121769 max: 0.00153143
GAMG:  Solving for cellDisplacementx, Initial residual = 0, Final residual = 0, No Iterations 0
GAMG:  Solving for cellDisplacementy, Initial residual = 0, Final residual = 0, No Iterations 0
GAMG:  Solving for cellDisplacementz, Initial residual = 0, Final residual = 0, No Iterations 0
PIMPLE: iteration 1
DILUPBiCG:  Solving for linUx, Initial residual = 0.0247132, Final residual = 8.92032e-05, No Iterations 1
DILUPBiCG:  Solving for linUy, Initial residual = 0.0485352, Final residual = 0.000128606, No Iterations 1
DILUPBiCG:  Solving for linUz, Initial residual = 0.100302, Final residual = 0.000209095, No Iterations 1
GAMG:  Solving for linP, Initial residual = 1, Final residual = 0.00934212, No Iterations 2
GAMG:  Solving for linP, Initial residual = 0.0154205, Final residual = 0.00010606, No Iterations 4
GAMG:  Solving for linP, Initial residual = 0.00523559, Final residual = 4.31846e-05, No Iterations 3
Adjoint continuity errors : sum local = 4.4376e-09, global = -6.1857e-11, cumulative = -6.1857e-11
GAMG:  Solving for linP, Initial residual = 0.0286747, Final residual = 0.00023857, No Iterations 3
GAMG:  Solving for linP, Initial residual = 0.00354632, Final residual = 2.3789e-05, No Iterations 4
GAMG:  Solving for linP, Initial residual = 0.00125322, Final residual = 4.90434e-06, No Iterations 4
Adjoint continuity errors : sum local = 4.85353e-10, global = -1.21175e-11, cumulative = -7.39744e-11
PIMPLE: iteration 2
DILUPBiCG:  Solving for linUx, Initial residual = 0.00206584, Final residual = 9.40252e-07, No Iterations 2
DILUPBiCG:  Solving for linUy, Initial residual = 0.00413328, Final residual = 3.96902e-05, No Iterations 1
DILUPBiCG:  Solving for linUz, Initial residual = 0.00725083, Final residual = 2.06981e-05, No Iterations 1
GAMG:  Solving for linP, Initial residual = 0.029609, Final residual = 9.21865e-05, No Iterations 3
GAMG:  Solving for linP, Initial residual = 0.00190705, Final residual = 1.19386e-05, No Iterations 4
GAMG:  Solving for linP, Initial residual = 0.00056797, Final residual = 5.06145e-06, No Iterations 3
Adjoint continuity errors : sum local = 5.17419e-10, global = 3.16748e-11, cumulative = -4.22997e-11
GAMG:  Solving for linP, Initial residual = 0.00135994, Final residual = 1.08023e-05, No Iterations 3
GAMG:  Solving for linP, Initial residual = 0.000310203, Final residual = 1.54764e-06, No Iterations 4
GAMG:  Solving for linP, Initial residual = 0.000101852, Final residual = 9.05283e-07, No Iterations 3
Adjoint continuity errors : sum local = 9.24715e-11, global = -3.67982e-12, cumulative = -4.59795e-11
PIMPLE: iteration 3
DILUPBiCG:  Solving for linUx, Initial residual = 0.000274275, Final residual = 2.35647e-06, No Iterations 1
DILUPBiCG:  Solving for linUy, Initial residual = 0.000504521, Final residual = 6.1459e-06, No Iterations 1
DILUPBiCG:  Solving for linUz, Initial residual = 0.000808738, Final residual = 5.63711e-06, No Iterations 1
GAMG:  Solving for linP, Initial residual = 0.037377, Final residual = 0.00025498, No Iterations 2
GAMG:  Solving for linP, Initial residual = 0.00131947, Final residual = 5.12262e-06, No Iterations 4
GAMG:  Solving for linP, Initial residual = 0.000445834, Final residual = 1.51858e-06, No Iterations 4
Adjoint continuity errors : sum local = 1.61104e-10, global = 3.38552e-11, cumulative = -1.21243e-11
GAMG:  Solving for linP, Initial residual = 0.00147069, Final residual = 7.14373e-06, No Iterations 3
GAMG:  Solving for linP, Initial residual = 0.000155367, Final residual = 1.29803e-06, No Iterations 4
GAMG:  Solving for linP, Initial residual = 5.68946e-05, Final residual = 5.88445e-07, No Iterations 3
Adjoint continuity errors : sum local = 6.25551e-11, global = -2.99906e-12, cumulative = -1.51233e-11
ExecutionTime = 11.97 s  ClockTime = 12 s

End

