/*---------------------------------------------------------------------------*\
| =========                 |                                                 |
| \\      /  F ield         | OpenFOAM: The Open Source CFD Toolbox           |
|  \\    /   O peration     | Version:  2.3.1                                 |
|   \\  /    A nd           | Web:      www.OpenFOAM.org                      |
|    \\/     M anipulation  |                                                 |
\*---------------------------------------------------------------------------*/
Build  : 2.3.1-262087cdf8db
Exec   : linearisedPimpleDyMFoam
Date   : Jun 06 2023
Time   : 00:05:48
Host   : "jcosson-VirtualBox"
PID    : 25097
Case   : /home/jcosson/workspace/henersj_shootingdata/calcs/moderate_deformed/primal/100_intervals_05-06-23/sweep11/interval39
nProcs : 1
sigFpe : Enabling floating point exception trapping (FOAM_SIGFPE).
fileModificationChecking : Monitoring run-time modified files using timeStampMaster
allowSystemOperations : Allowing user-supplied system call operations

// * * * * * * * * * * * * * * * * * * * * * * * * * * * * * * * * * * * * * //
Create time

Create mesh for time = 0.438

Selecting dynamicFvMesh dynamicMotionSolverFvMesh
Selecting motion solver: displacementLaplacian
Selecting motion diffusion: quadratic
Selecting motion diffusion: quadratic
Selecting motion diffusion: inverseDistance
Reading field linP

Reading field linU

starte createPhia.H

Reading/calculating face flux field linPhi

Adjungierte Interpolation durchgefuehrt

createPhia.H verlassen

setRefCell ausgefuehrt

No finite volume options present


PIMPLE: no residual control data found. Calculations will employ 3 corrector loops


Starting time loop

Time = 0.439

Reading field p

Reading field U

Read primal fluxes 

Reading primal face flux fields phi/meshPhi

Created primal fluxes 

Selecting incompressible transport model Newtonian
singlePhaseTransportModel gewaehlt 

Selecting turbulence model type RASModel
Selecting RAS turbulence model kOmegaSST
kOmegaSSTCoeffs
{
    alphaK1         0.85034;
    alphaK2         1;
    alphaOmega1     0.5;
    alphaOmega2     0.85616;
    gamma1          0.5532;
    gamma2          0.4403;
    beta1           0.075;
    beta2           0.0828;
    betaStar        0.09;
    a1              0.31;
    c1              10;
    Cmu             0.09;
    b1              1;
    F3              false;
}

autoPtr ausgefuehrt

Reading/calculating face velocity Uf

Init adjoint face velocity linUf

Courant Number mean: 0.258428 max: 0.571695
Adjoint Courant Number mean: 0.000160728 max: 0.00576936
GAMG:  Solving for cellDisplacementx, Initial residual = 0, Final residual = 0, No Iterations 0
GAMG:  Solving for cellDisplacementy, Initial residual = 0, Final residual = 0, No Iterations 0
GAMG:  Solving for cellDisplacementz, Initial residual = 0, Final residual = 0, No Iterations 0
PIMPLE: iteration 1
DILUPBiCG:  Solving for linUx, Initial residual = 0.071248, Final residual = 0.000171479, No Iterations 1
DILUPBiCG:  Solving for linUy, Initial residual = 0.138735, Final residual = 0.000244004, No Iterations 1
DILUPBiCG:  Solving for linUz, Initial residual = 0.156958, Final residual = 0.000324987, No Iterations 1
GAMG:  Solving for linP, Initial residual = 1, Final residual = 0.00917596, No Iterations 2
GAMG:  Solving for linP, Initial residual = 0.0159675, Final residual = 0.000118017, No Iterations 4
GAMG:  Solving for linP, Initial residual = 0.00609634, Final residual = 4.4988e-05, No Iterations 4
Adjoint continuity errors : sum local = 2.14173e-08, global = -4.5526e-09, cumulative = -4.5526e-09
GAMG:  Solving for linP, Initial residual = 0.0349497, Final residual = 0.000210317, No Iterations 3
GAMG:  Solving for linP, Initial residual = 0.00406947, Final residual = 2.1073e-05, No Iterations 4
GAMG:  Solving for linP, Initial residual = 0.00131725, Final residual = 8.04679e-06, No Iterations 4
Adjoint continuity errors : sum local = 3.69258e-09, global = 3.99663e-10, cumulative = -4.15294e-09
PIMPLE: iteration 2
DILUPBiCG:  Solving for linUx, Initial residual = 0.0137931, Final residual = 4.07053e-05, No Iterations 1
DILUPBiCG:  Solving for linUy, Initial residual = 0.0261772, Final residual = 5.86368e-05, No Iterations 1
DILUPBiCG:  Solving for linUz, Initial residual = 0.0309978, Final residual = 8.51457e-05, No Iterations 1
GAMG:  Solving for linP, Initial residual = 0.0465305, Final residual = 0.000171544, No Iterations 3
GAMG:  Solving for linP, Initial residual = 0.00293599, Final residual = 1.62545e-05, No Iterations 4
GAMG:  Solving for linP, Initial residual = 0.000922495, Final residual = 4.23657e-06, No Iterations 4
Adjoint continuity errors : sum local = 1.97568e-09, global = -5.25693e-10, cumulative = -4.67863e-09
GAMG:  Solving for linP, Initial residual = 0.0032514, Final residual = 2.69312e-05, No Iterations 3
GAMG:  Solving for linP, Initial residual = 0.000589148, Final residual = 3.37709e-06, No Iterations 4
GAMG:  Solving for linP, Initial residual = 0.00019468, Final residual = 1.12989e-06, No Iterations 4
Adjoint continuity errors : sum local = 5.26909e-10, global = -5.57705e-11, cumulative = -4.7344e-09
PIMPLE: iteration 3
DILUPBiCG:  Solving for linUx, Initial residual = 0.00226303, Final residual = 4.90434e-08, No Iterations 2
DILUPBiCG:  Solving for linUy, Initial residual = 0.00425239, Final residual = 6.67197e-08, No Iterations 2
DILUPBiCG:  Solving for linUz, Initial residual = 0.00380331, Final residual = 1.02796e-07, No Iterations 2
GAMG:  Solving for linP, Initial residual = 0.0437315, Final residual = 0.000387343, No Iterations 2
GAMG:  Solving for linP, Initial residual = 0.00146955, Final residual = 1.46418e-05, No Iterations 3
GAMG:  Solving for linP, Initial residual = 0.000543676, Final residual = 2.72626e-06, No Iterations 4
Adjoint continuity errors : sum local = 1.29954e-09, global = -3.98767e-10, cumulative = -5.13317e-09
GAMG:  Solving for linP, Initial residual = 0.00224643, Final residual = 7.22968e-06, No Iterations 3
GAMG:  Solving for linP, Initial residual = 0.000180772, Final residual = 9.31511e-07, No Iterations 4
GAMG:  Solving for linP, Initial residual = 6.60468e-05, Final residual = 3.45007e-07, No Iterations 4
Adjoint continuity errors : sum local = 1.64918e-10, global = 1.10196e-11, cumulative = -5.12215e-09
ExecutionTime = 11.1 s  ClockTime = 11 s

End

