/*---------------------------------------------------------------------------*\
| =========                 |                                                 |
| \\      /  F ield         | OpenFOAM: The Open Source CFD Toolbox           |
|  \\    /   O peration     | Version:  2.3.1                                 |
|   \\  /    A nd           | Web:      www.OpenFOAM.org                      |
|    \\/     M anipulation  |                                                 |
\*---------------------------------------------------------------------------*/
Build  : 2.3.1-262087cdf8db
Exec   : pimpleDyMFoam
Date   : Jun 06 2023
Time   : 01:32:56
Host   : "jcosson-VirtualBox"
PID    : 3655
Case   : /home/jcosson/workspace/henersj_shootingdata/calcs/moderate_deformed/primal/100_intervals_05-06-23/sweep38/interval94
nProcs : 1
sigFpe : Enabling floating point exception trapping (FOAM_SIGFPE).
fileModificationChecking : Monitoring run-time modified files using timeStampMaster
allowSystemOperations : Allowing user-supplied system call operations

// * * * * * * * * * * * * * * * * * * * * * * * * * * * * * * * * * * * * * //
Create time

Create mesh for time = 0.493

Selecting dynamicFvMesh dynamicMotionSolverFvMesh
Selecting motion solver: displacementLaplacian
Selecting motion diffusion: quadratic
Selecting motion diffusion: quadratic
Selecting motion diffusion: inverseDistance

PIMPLE: no residual control data found. Calculations will employ 3 corrector loops

Reading field p

Reading field U

Reading/calculating face flux field phi

Selecting incompressible transport model Newtonian
Selecting turbulence model type RASModel
Selecting RAS turbulence model kOmegaSST
bounding k, min: 0 max: 0.000580706 average: 0.00015169
kOmegaSSTCoeffs
{
    alphaK1         0.85034;
    alphaK2         1;
    alphaOmega1     0.5;
    alphaOmega2     0.85616;
    gamma1          0.5532;
    gamma2          0.4403;
    beta1           0.075;
    beta2           0.0828;
    betaStar        0.09;
    a1              0.31;
    c1              10;
    Cmu             0.09;
    b1              1;
    F3              false;
}

Reading/calculating face velocity Uf

No finite volume options present

Courant Number mean: 0.107327 max: 0.246811

Starting time loop

Courant Number mean: 0.107327 max: 0.246811
Time = 0.494

GAMG:  Solving for cellDisplacementx, Initial residual = 0, Final residual = 0, No Iterations 0
GAMG:  Solving for cellDisplacementy, Initial residual = 0, Final residual = 0, No Iterations 0
GAMG:  Solving for cellDisplacementz, Initial residual = 0, Final residual = 0, No Iterations 0
PIMPLE: iteration 1
DILUPBiCG:  Solving for Ux, Initial residual = 0.04016, Final residual = 0.000147122, No Iterations 1
DILUPBiCG:  Solving for Uy, Initial residual = 0.00847305, Final residual = 1.66178e-05, No Iterations 1
DILUPBiCG:  Solving for Uz, Initial residual = 0.0114413, Final residual = 1.03529e-05, No Iterations 1
GAMG:  Solving for p, Initial residual = 0.108268, Final residual = 0.000477466, No Iterations 4
GAMG:  Solving for p, Initial residual = 0.0153688, Final residual = 0.000144814, No Iterations 14
GAMG:  Solving for p, Initial residual = 0.00765647, Final residual = 6.98187e-05, No Iterations 4
time step continuity errors : sum local = 5.37687e-07, global = 1.82558e-07, cumulative = 1.82558e-07
GAMG:  Solving for p, Initial residual = 0.0502833, Final residual = 0.000211894, No Iterations 4
GAMG:  Solving for p, Initial residual = 0.00753329, Final residual = 6.51896e-05, No Iterations 14
GAMG:  Solving for p, Initial residual = 0.00385013, Final residual = 3.36512e-05, No Iterations 4
time step continuity errors : sum local = 2.61444e-07, global = 9.0958e-08, cumulative = 2.73516e-07
PIMPLE: iteration 2
DILUPBiCG:  Solving for Ux, Initial residual = 0.00991519, Final residual = 5.63121e-05, No Iterations 1
DILUPBiCG:  Solving for Uy, Initial residual = 0.00214784, Final residual = 4.2397e-06, No Iterations 1
DILUPBiCG:  Solving for Uz, Initial residual = 0.002696, Final residual = 8.31947e-05, No Iterations 1
GAMG:  Solving for p, Initial residual = 0.0484443, Final residual = 0.000337644, No Iterations 6
GAMG:  Solving for p, Initial residual = 0.0123535, Final residual = 0.000113698, No Iterations 12
GAMG:  Solving for p, Initial residual = 0.00462027, Final residual = 4.49779e-05, No Iterations 10
time step continuity errors : sum local = 3.05196e-07, global = -7.72351e-08, cumulative = 1.96281e-07
GAMG:  Solving for p, Initial residual = 0.0258459, Final residual = 0.00025336, No Iterations 4
GAMG:  Solving for p, Initial residual = 0.00642426, Final residual = 5.66786e-05, No Iterations 12
GAMG:  Solving for p, Initial residual = 0.00250816, Final residual = 2.27874e-05, No Iterations 10
time step continuity errors : sum local = 1.54875e-07, global = -3.90511e-08, cumulative = 1.5723e-07
PIMPLE: iteration 3
DILUPBiCG:  Solving for Ux, Initial residual = 0.0018765, Final residual = 5.49538e-06, No Iterations 2
DILUPBiCG:  Solving for Uy, Initial residual = 0.000448869, Final residual = 6.96782e-06, No Iterations 1
DILUPBiCG:  Solving for Uz, Initial residual = 0.00348689, Final residual = 4.18992e-06, No Iterations 2
GAMG:  Solving for p, Initial residual = 0.0512051, Final residual = 0.000368012, No Iterations 5
GAMG:  Solving for p, Initial residual = 0.0114603, Final residual = 0.000110708, No Iterations 14
GAMG:  Solving for p, Initial residual = 0.0062625, Final residual = 5.8528e-05, No Iterations 10
time step continuity errors : sum local = 4.41195e-07, global = -1.19688e-07, cumulative = 3.75413e-08
GAMG:  Solving for p, Initial residual = 0.00282678, Final residual = 2.79521e-05, No Iterations 7
GAMG:  Solving for p, Initial residual = 0.00145842, Final residual = 1.19933e-05, No Iterations 6
GAMG:  Solving for p, Initial residual = 0.000602163, Final residual = 9.30678e-07, No Iterations 30
time step continuity errors : sum local = 6.91312e-09, global = 2.12192e-09, cumulative = 3.96632e-08
DILUPBiCG:  Solving for omega, Initial residual = 0.00134379, Final residual = 7.14007e-07, No Iterations 1
DILUPBiCG:  Solving for k, Initial residual = 0.00346341, Final residual = 6.05114e-07, No Iterations 2
bounding k, min: 0 max: 0.000572391 average: 0.000150837
ExecutionTime = 10.5 s  ClockTime = 10 s

End

