/*---------------------------------------------------------------------------*\
| =========                 |                                                 |
| \\      /  F ield         | OpenFOAM: The Open Source CFD Toolbox           |
|  \\    /   O peration     | Version:  2.3.1                                 |
|   \\  /    A nd           | Web:      www.OpenFOAM.org                      |
|    \\/     M anipulation  |                                                 |
\*---------------------------------------------------------------------------*/
Build  : 2.3.1-262087cdf8db
Exec   : pimpleDyMFoam
Date   : Jun 06 2023
Time   : 01:32:31
Host   : "jcosson-VirtualBox"
PID    : 3624
Case   : /home/jcosson/workspace/henersj_shootingdata/calcs/moderate_deformed/primal/100_intervals_05-06-23/sweep38/interval79
nProcs : 1
sigFpe : Enabling floating point exception trapping (FOAM_SIGFPE).
fileModificationChecking : Monitoring run-time modified files using timeStampMaster
allowSystemOperations : Allowing user-supplied system call operations

// * * * * * * * * * * * * * * * * * * * * * * * * * * * * * * * * * * * * * //
Create time

Create mesh for time = 0.478

Selecting dynamicFvMesh dynamicMotionSolverFvMesh
Selecting motion solver: displacementLaplacian
Selecting motion diffusion: quadratic
Selecting motion diffusion: quadratic
Selecting motion diffusion: inverseDistance

PIMPLE: no residual control data found. Calculations will employ 3 corrector loops

Reading field p

Reading field U

Reading/calculating face flux field phi

Selecting incompressible transport model Newtonian
Selecting turbulence model type RASModel
Selecting RAS turbulence model kOmegaSST
bounding k, min: 0 max: 0.000760124 average: 0.000163428
kOmegaSSTCoeffs
{
    alphaK1         0.85034;
    alphaK2         1;
    alphaOmega1     0.5;
    alphaOmega2     0.85616;
    gamma1          0.5532;
    gamma2          0.4403;
    beta1           0.075;
    beta2           0.0828;
    betaStar        0.09;
    a1              0.31;
    c1              10;
    Cmu             0.09;
    b1              1;
    F3              false;
}

Reading/calculating face velocity Uf

No finite volume options present

Courant Number mean: 0.172246 max: 0.38054

Starting time loop

Courant Number mean: 0.172246 max: 0.38054
Time = 0.479

GAMG:  Solving for cellDisplacementx, Initial residual = 0, Final residual = 0, No Iterations 0
GAMG:  Solving for cellDisplacementy, Initial residual = 0, Final residual = 0, No Iterations 0
GAMG:  Solving for cellDisplacementz, Initial residual = 0, Final residual = 0, No Iterations 0
PIMPLE: iteration 1
DILUPBiCG:  Solving for Ux, Initial residual = 0.0625567, Final residual = 0.000248222, No Iterations 1
DILUPBiCG:  Solving for Uy, Initial residual = 0.0108795, Final residual = 2.34553e-05, No Iterations 1
DILUPBiCG:  Solving for Uz, Initial residual = 0.0105289, Final residual = 2.02959e-05, No Iterations 1
GAMG:  Solving for p, Initial residual = 0.121311, Final residual = 0.000829715, No Iterations 6
GAMG:  Solving for p, Initial residual = 0.0144158, Final residual = 0.000129309, No Iterations 18
GAMG:  Solving for p, Initial residual = 0.00640893, Final residual = 6.25905e-05, No Iterations 10
time step continuity errors : sum local = 9.60713e-07, global = 2.58773e-07, cumulative = 2.58773e-07
GAMG:  Solving for p, Initial residual = 0.0525178, Final residual = 0.000469638, No Iterations 4
GAMG:  Solving for p, Initial residual = 0.0072913, Final residual = 6.48871e-05, No Iterations 18
GAMG:  Solving for p, Initial residual = 0.0034085, Final residual = 3.17412e-05, No Iterations 10
time step continuity errors : sum local = 4.88247e-07, global = 1.30963e-07, cumulative = 3.89736e-07
PIMPLE: iteration 2
DILUPBiCG:  Solving for Ux, Initial residual = 0.0173714, Final residual = 0.000104115, No Iterations 1
DILUPBiCG:  Solving for Uy, Initial residual = 0.00318354, Final residual = 6.7675e-06, No Iterations 1
DILUPBiCG:  Solving for Uz, Initial residual = 0.00292287, Final residual = 1.13212e-05, No Iterations 1
GAMG:  Solving for p, Initial residual = 0.0522812, Final residual = 0.000475121, No Iterations 4
GAMG:  Solving for p, Initial residual = 0.00886787, Final residual = 8.43329e-05, No Iterations 16
GAMG:  Solving for p, Initial residual = 0.00394916, Final residual = 3.5382e-05, No Iterations 10
time step continuity errors : sum local = 4.67922e-07, global = -1.22773e-07, cumulative = 2.66963e-07
GAMG:  Solving for p, Initial residual = 0.0270405, Final residual = 0.000212098, No Iterations 4
GAMG:  Solving for p, Initial residual = 0.00447125, Final residual = 3.99272e-05, No Iterations 14
GAMG:  Solving for p, Initial residual = 0.00186097, Final residual = 1.73217e-05, No Iterations 10
time step continuity errors : sum local = 2.30165e-07, global = -5.92406e-08, cumulative = 2.07723e-07
PIMPLE: iteration 3
DILUPBiCG:  Solving for Ux, Initial residual = 0.00406406, Final residual = 2.974e-06, No Iterations 2
DILUPBiCG:  Solving for Uy, Initial residual = 0.000755208, Final residual = 5.75312e-06, No Iterations 1
DILUPBiCG:  Solving for Uz, Initial residual = 0.00649467, Final residual = 4.11055e-06, No Iterations 2
GAMG:  Solving for p, Initial residual = 0.0411202, Final residual = 0.000360273, No Iterations 5
GAMG:  Solving for p, Initial residual = 0.00953799, Final residual = 7.91837e-05, No Iterations 4
GAMG:  Solving for p, Initial residual = 0.00440863, Final residual = 3.58449e-05, No Iterations 10
time step continuity errors : sum local = 5.33553e-07, global = -1.37596e-07, cumulative = 7.01269e-08
GAMG:  Solving for p, Initial residual = 0.00242131, Final residual = 2.28911e-05, No Iterations 16
GAMG:  Solving for p, Initial residual = 0.00130829, Final residual = 1.17854e-05, No Iterations 4
GAMG:  Solving for p, Initial residual = 0.000534892, Final residual = 8.96668e-07, No Iterations 32
time step continuity errors : sum local = 1.32253e-08, global = 3.89764e-09, cumulative = 7.40246e-08
DILUPBiCG:  Solving for omega, Initial residual = 0.000791143, Final residual = 7.20867e-07, No Iterations 1
DILUPBiCG:  Solving for k, Initial residual = 0.00409324, Final residual = 8.6374e-07, No Iterations 2
bounding k, min: 0 max: 0.000751238 average: 0.00016232
ExecutionTime = 16.53 s  ClockTime = 16 s

End

