/*---------------------------------------------------------------------------*\
| =========                 |                                                 |
| \\      /  F ield         | OpenFOAM: The Open Source CFD Toolbox           |
|  \\    /   O peration     | Version:  2.3.1                                 |
|   \\  /    A nd           | Web:      www.OpenFOAM.org                      |
|    \\/     M anipulation  |                                                 |
\*---------------------------------------------------------------------------*/
Build  : 2.3.1-262087cdf8db
Exec   : pimpleDyMFoam
Date   : Jun 06 2023
Time   : 01:32:12
Host   : "jcosson-VirtualBox"
PID    : 3586
Case   : /home/jcosson/workspace/henersj_shootingdata/calcs/moderate_deformed/primal/100_intervals_05-06-23/sweep38/interval60
nProcs : 1
sigFpe : Enabling floating point exception trapping (FOAM_SIGFPE).
fileModificationChecking : Monitoring run-time modified files using timeStampMaster
allowSystemOperations : Allowing user-supplied system call operations

// * * * * * * * * * * * * * * * * * * * * * * * * * * * * * * * * * * * * * //
Create time

Create mesh for time = 0.459

Selecting dynamicFvMesh dynamicMotionSolverFvMesh
Selecting motion solver: displacementLaplacian
Selecting motion diffusion: quadratic
Selecting motion diffusion: quadratic
Selecting motion diffusion: inverseDistance

PIMPLE: no residual control data found. Calculations will employ 3 corrector loops

Reading field p

Reading field U

Reading/calculating face flux field phi

Selecting incompressible transport model Newtonian
Selecting turbulence model type RASModel
Selecting RAS turbulence model kOmegaSST
kOmegaSSTCoeffs
{
    alphaK1         0.85034;
    alphaK2         1;
    alphaOmega1     0.5;
    alphaOmega2     0.85616;
    gamma1          0.5532;
    gamma2          0.4403;
    beta1           0.075;
    beta2           0.0828;
    betaStar        0.09;
    a1              0.31;
    c1              10;
    Cmu             0.09;
    b1              1;
    F3              false;
}

Reading/calculating face velocity Uf

No finite volume options present

Courant Number mean: 0.265767 max: 0.589721

Starting time loop

Courant Number mean: 0.265767 max: 0.589721
Time = 0.46

GAMG:  Solving for cellDisplacementx, Initial residual = 0, Final residual = 0, No Iterations 0
GAMG:  Solving for cellDisplacementy, Initial residual = 0, Final residual = 0, No Iterations 0
GAMG:  Solving for cellDisplacementz, Initial residual = 0, Final residual = 0, No Iterations 0
PIMPLE: iteration 1
DILUPBiCG:  Solving for Ux, Initial residual = 0.0221587, Final residual = 8.81419e-05, No Iterations 1
DILUPBiCG:  Solving for Uy, Initial residual = 0.00353691, Final residual = 8.35211e-06, No Iterations 1
DILUPBiCG:  Solving for Uz, Initial residual = 0.0146802, Final residual = 3.64624e-05, No Iterations 1
GAMG:  Solving for p, Initial residual = 0.162329, Final residual = 0.00139349, No Iterations 6
GAMG:  Solving for p, Initial residual = 0.0206758, Final residual = 0.000185532, No Iterations 18
GAMG:  Solving for p, Initial residual = 0.00841074, Final residual = 7.16705e-05, No Iterations 12
time step continuity errors : sum local = 5.77466e-07, global = 1.73613e-07, cumulative = 1.73613e-07
GAMG:  Solving for p, Initial residual = 0.0655401, Final residual = 0.000442386, No Iterations 6
GAMG:  Solving for p, Initial residual = 0.0102823, Final residual = 0.000101961, No Iterations 14
GAMG:  Solving for p, Initial residual = 0.00435845, Final residual = 4.12469e-05, No Iterations 12
time step continuity errors : sum local = 3.30066e-07, global = 9.87244e-08, cumulative = 2.72338e-07
PIMPLE: iteration 2
DILUPBiCG:  Solving for Ux, Initial residual = 0.00707352, Final residual = 3.17214e-05, No Iterations 1
DILUPBiCG:  Solving for Uy, Initial residual = 0.00118138, Final residual = 3.57146e-06, No Iterations 1
DILUPBiCG:  Solving for Uz, Initial residual = 0.00399457, Final residual = 1.14292e-05, No Iterations 1
GAMG:  Solving for p, Initial residual = 0.0675197, Final residual = 0.000373418, No Iterations 4
GAMG:  Solving for p, Initial residual = 0.0114195, Final residual = 0.000109283, No Iterations 12
GAMG:  Solving for p, Initial residual = 0.0052137, Final residual = 4.75552e-05, No Iterations 8
time step continuity errors : sum local = 3.23406e-07, global = -1.02127e-07, cumulative = 1.70211e-07
GAMG:  Solving for p, Initial residual = 0.0339359, Final residual = 0.000159266, No Iterations 4
GAMG:  Solving for p, Initial residual = 0.00558132, Final residual = 5.06143e-05, No Iterations 10
GAMG:  Solving for p, Initial residual = 0.00249296, Final residual = 2.1573e-05, No Iterations 8
time step continuity errors : sum local = 1.47328e-07, global = -4.62073e-08, cumulative = 1.24004e-07
PIMPLE: iteration 3
DILUPBiCG:  Solving for Ux, Initial residual = 0.00198604, Final residual = 5.33934e-07, No Iterations 2
DILUPBiCG:  Solving for Uy, Initial residual = 0.000329203, Final residual = 6.22814e-06, No Iterations 1
DILUPBiCG:  Solving for Uz, Initial residual = 0.00462585, Final residual = 1.024e-06, No Iterations 2
GAMG:  Solving for p, Initial residual = 0.0444049, Final residual = 0.000344821, No Iterations 5
GAMG:  Solving for p, Initial residual = 0.0103505, Final residual = 9.80922e-05, No Iterations 13
GAMG:  Solving for p, Initial residual = 0.00477139, Final residual = 4.30858e-05, No Iterations 10
time step continuity errors : sum local = 3.24868e-07, global = -8.4574e-08, cumulative = 3.94297e-08
GAMG:  Solving for p, Initial residual = 0.00316918, Final residual = 2.93432e-05, No Iterations 14
GAMG:  Solving for p, Initial residual = 0.00178042, Final residual = 1.49246e-05, No Iterations 4
GAMG:  Solving for p, Initial residual = 0.000664073, Final residual = 9.29609e-07, No Iterations 38
time step continuity errors : sum local = 6.997e-09, global = 2.07398e-09, cumulative = 4.15037e-08
DILUPBiCG:  Solving for omega, Initial residual = 0.00066464, Final residual = 1.19169e-06, No Iterations 1
DILUPBiCG:  Solving for k, Initial residual = 0.00484822, Final residual = 1.12385e-06, No Iterations 2
ExecutionTime = 17.11 s  ClockTime = 17 s

End

