/*---------------------------------------------------------------------------*\
| =========                 |                                                 |
| \\      /  F ield         | OpenFOAM: The Open Source CFD Toolbox           |
|  \\    /   O peration     | Version:  2.3.1                                 |
|   \\  /    A nd           | Web:      www.OpenFOAM.org                      |
|    \\/     M anipulation  |                                                 |
\*---------------------------------------------------------------------------*/
Build  : 2.3.1-262087cdf8db
Exec   : linearisedPimpleDyMFoam
Date   : Jun 06 2023
Time   : 01:01:46
Host   : "jcosson-VirtualBox"
PID    : 20740
Case   : /home/jcosson/workspace/henersj_shootingdata/calcs/moderate_deformed/primal/100_intervals_05-06-23/sweep27/interval69
nProcs : 1
sigFpe : Enabling floating point exception trapping (FOAM_SIGFPE).
fileModificationChecking : Monitoring run-time modified files using timeStampMaster
allowSystemOperations : Allowing user-supplied system call operations

// * * * * * * * * * * * * * * * * * * * * * * * * * * * * * * * * * * * * * //
Create time

Create mesh for time = 0.468

Selecting dynamicFvMesh dynamicMotionSolverFvMesh
Selecting motion solver: displacementLaplacian
Selecting motion diffusion: quadratic
Selecting motion diffusion: quadratic
Selecting motion diffusion: inverseDistance
Reading field linP

Reading field linU

starte createPhia.H

Reading/calculating face flux field linPhi

Adjungierte Interpolation durchgefuehrt

createPhia.H verlassen

setRefCell ausgefuehrt

No finite volume options present


PIMPLE: no residual control data found. Calculations will employ 3 corrector loops


Starting time loop

Time = 0.469

Reading field p

Reading field U

Read primal fluxes 

Reading primal face flux fields phi/meshPhi

Created primal fluxes 

Selecting incompressible transport model Newtonian
singlePhaseTransportModel gewaehlt 

Selecting turbulence model type RASModel
Selecting RAS turbulence model kOmegaSST
kOmegaSSTCoeffs
{
    alphaK1         0.85034;
    alphaK2         1;
    alphaOmega1     0.5;
    alphaOmega2     0.85616;
    gamma1          0.5532;
    gamma2          0.4403;
    beta1           0.075;
    beta2           0.0828;
    betaStar        0.09;
    a1              0.31;
    c1              10;
    Cmu             0.09;
    b1              1;
    F3              false;
}

autoPtr ausgefuehrt

Reading/calculating face velocity Uf

Init adjoint face velocity linUf

Courant Number mean: 0.222545 max: 0.491568
Adjoint Courant Number mean: 0.000180367 max: 0.00454867
GAMG:  Solving for cellDisplacementx, Initial residual = 0, Final residual = 0, No Iterations 0
GAMG:  Solving for cellDisplacementy, Initial residual = 0, Final residual = 0, No Iterations 0
GAMG:  Solving for cellDisplacementz, Initial residual = 0, Final residual = 0, No Iterations 0
PIMPLE: iteration 1
DILUPBiCG:  Solving for linUx, Initial residual = 0.0394771, Final residual = 0.000110568, No Iterations 1
DILUPBiCG:  Solving for linUy, Initial residual = 0.0716242, Final residual = 0.000157023, No Iterations 1
DILUPBiCG:  Solving for linUz, Initial residual = 0.0952452, Final residual = 0.000231055, No Iterations 1
GAMG:  Solving for linP, Initial residual = 1, Final residual = 0.00284679, No Iterations 3
GAMG:  Solving for linP, Initial residual = 0.0158165, Final residual = 0.000146622, No Iterations 4
GAMG:  Solving for linP, Initial residual = 0.00514156, Final residual = 5.06986e-05, No Iterations 3
Adjoint continuity errors : sum local = 1.12298e-08, global = -6.27265e-11, cumulative = -6.27265e-11
GAMG:  Solving for linP, Initial residual = 0.0338583, Final residual = 0.00025221, No Iterations 3
GAMG:  Solving for linP, Initial residual = 0.00443207, Final residual = 3.1357e-05, No Iterations 4
GAMG:  Solving for linP, Initial residual = 0.00151714, Final residual = 9.41564e-06, No Iterations 4
Adjoint continuity errors : sum local = 1.99701e-09, global = 3.45405e-11, cumulative = -2.81859e-11
PIMPLE: iteration 2
DILUPBiCG:  Solving for linUx, Initial residual = 0.0045356, Final residual = 1.87794e-05, No Iterations 1
DILUPBiCG:  Solving for linUy, Initial residual = 0.00978474, Final residual = 3.03585e-05, No Iterations 1
DILUPBiCG:  Solving for linUz, Initial residual = 0.0112753, Final residual = 4.13981e-05, No Iterations 1
GAMG:  Solving for linP, Initial residual = 0.0443777, Final residual = 0.000132788, No Iterations 3
GAMG:  Solving for linP, Initial residual = 0.00275455, Final residual = 2.36803e-05, No Iterations 3
GAMG:  Solving for linP, Initial residual = 0.000778839, Final residual = 3.63018e-06, No Iterations 4
Adjoint continuity errors : sum local = 7.82022e-10, global = 1.31095e-10, cumulative = 1.02909e-10
GAMG:  Solving for linP, Initial residual = 0.00263681, Final residual = 2.12222e-05, No Iterations 3
GAMG:  Solving for linP, Initial residual = 0.00048238, Final residual = 2.60656e-06, No Iterations 4
GAMG:  Solving for linP, Initial residual = 0.000160133, Final residual = 9.9413e-07, No Iterations 4
Adjoint continuity errors : sum local = 2.1415e-10, global = -4.79814e-11, cumulative = 5.49279e-11
PIMPLE: iteration 3
DILUPBiCG:  Solving for linUx, Initial residual = 0.000701429, Final residual = 4.14242e-06, No Iterations 1
DILUPBiCG:  Solving for linUy, Initial residual = 0.00156063, Final residual = 7.31619e-06, No Iterations 1
DILUPBiCG:  Solving for linUz, Initial residual = 0.00138393, Final residual = 4.80641e-06, No Iterations 1
GAMG:  Solving for linP, Initial residual = 0.041674, Final residual = 0.000342438, No Iterations 2
GAMG:  Solving for linP, Initial residual = 0.00159295, Final residual = 1.28557e-05, No Iterations 3
GAMG:  Solving for linP, Initial residual = 0.000558767, Final residual = 5.24727e-06, No Iterations 3
Adjoint continuity errors : sum local = 1.16476e-09, global = 1.41029e-10, cumulative = 1.95957e-10
GAMG:  Solving for linP, Initial residual = 0.00196, Final residual = 6.91675e-06, No Iterations 3
GAMG:  Solving for linP, Initial residual = 0.000190523, Final residual = 1.74169e-06, No Iterations 3
GAMG:  Solving for linP, Initial residual = 6.91159e-05, Final residual = 4.31512e-07, No Iterations 4
Adjoint continuity errors : sum local = 9.60182e-11, global = 8.93952e-12, cumulative = 2.04896e-10
ExecutionTime = 11.39 s  ClockTime = 11 s

End

