/*---------------------------------------------------------------------------*\
| =========                 |                                                 |
| \\      /  F ield         | OpenFOAM: The Open Source CFD Toolbox           |
|  \\    /   O peration     | Version:  2.3.1                                 |
|   \\  /    A nd           | Web:      www.OpenFOAM.org                      |
|    \\/     M anipulation  |                                                 |
\*---------------------------------------------------------------------------*/
Build  : 2.3.1-262087cdf8db
Exec   : linearisedPimpleDyMFoam
Date   : Jun 05 2023
Time   : 18:44:01
Host   : "jcosson-VirtualBox"
PID    : 23060
Case   : /home/jcosson/workspace/henersj_shootingdata/calcs/moderate_deformed/primal/56_intervals_05-06-23/sweep19/interval53
nProcs : 1
sigFpe : Enabling floating point exception trapping (FOAM_SIGFPE).
fileModificationChecking : Monitoring run-time modified files using timeStampMaster
allowSystemOperations : Allowing user-supplied system call operations

// * * * * * * * * * * * * * * * * * * * * * * * * * * * * * * * * * * * * * //
Create time

Create mesh for time = 0.493

Selecting dynamicFvMesh dynamicMotionSolverFvMesh
Selecting motion solver: displacementLaplacian
Selecting motion diffusion: quadratic
Selecting motion diffusion: quadratic
Selecting motion diffusion: inverseDistance
Reading field linP

Reading field linU

starte createPhia.H

Reading/calculating face flux field linPhi

Adjungierte Interpolation durchgefuehrt

createPhia.H verlassen

setRefCell ausgefuehrt

No finite volume options present


PIMPLE: no residual control data found. Calculations will employ 3 corrector loops


Starting time loop

Time = 0.494

Reading field p

Reading field U

Read primal fluxes 

Reading primal face flux fields phi/meshPhi

Created primal fluxes 

Selecting incompressible transport model Newtonian
singlePhaseTransportModel gewaehlt 

Selecting turbulence model type RASModel
Selecting RAS turbulence model kOmegaSST
bounding k, min: 0 max: 0.000608781 average: 0.000151949
kOmegaSSTCoeffs
{
    alphaK1         0.85034;
    alphaK2         1;
    alphaOmega1     0.5;
    alphaOmega2     0.85616;
    gamma1          0.5532;
    gamma2          0.4403;
    beta1           0.075;
    beta2           0.0828;
    betaStar        0.09;
    a1              0.31;
    c1              10;
    Cmu             0.09;
    b1              1;
    F3              false;
}

autoPtr ausgefuehrt

Reading/calculating face velocity Uf

Init adjoint face velocity linUf

Courant Number mean: 0.104948 max: 0.240514
Adjoint Courant Number mean: 0.000322288 max: 0.00522746
GAMG:  Solving for cellDisplacementx, Initial residual = 0, Final residual = 0, No Iterations 0
GAMG:  Solving for cellDisplacementy, Initial residual = 0, Final residual = 0, No Iterations 0
GAMG:  Solving for cellDisplacementz, Initial residual = 0, Final residual = 0, No Iterations 0
PIMPLE: iteration 1
DILUPBiCG:  Solving for linUx, Initial residual = 0.0155207, Final residual = 3.87847e-05, No Iterations 1
DILUPBiCG:  Solving for linUy, Initial residual = 0.0270344, Final residual = 5.33071e-05, No Iterations 1
DILUPBiCG:  Solving for linUz, Initial residual = 0.0410496, Final residual = 8.3418e-05, No Iterations 1
GAMG:  Solving for linP, Initial residual = 1, Final residual = 0.00400672, No Iterations 3
GAMG:  Solving for linP, Initial residual = 0.0220348, Final residual = 0.000142048, No Iterations 4
GAMG:  Solving for linP, Initial residual = 0.00678474, Final residual = 6.40094e-05, No Iterations 4
Adjoint continuity errors : sum local = 8.14281e-09, global = -8.39065e-10, cumulative = -8.39065e-10
GAMG:  Solving for linP, Initial residual = 0.0179325, Final residual = 8.91929e-05, No Iterations 4
GAMG:  Solving for linP, Initial residual = 0.00402389, Final residual = 2.38348e-05, No Iterations 4
GAMG:  Solving for linP, Initial residual = 0.00141005, Final residual = 4.98192e-06, No Iterations 5
Adjoint continuity errors : sum local = 6.21076e-10, global = 8.6229e-11, cumulative = -7.52836e-10
PIMPLE: iteration 2
DILUPBiCG:  Solving for linUx, Initial residual = 0.00143851, Final residual = 5.03417e-06, No Iterations 1
DILUPBiCG:  Solving for linUy, Initial residual = 0.00261962, Final residual = 1.6623e-05, No Iterations 1
DILUPBiCG:  Solving for linUz, Initial residual = 0.00355884, Final residual = 7.32423e-06, No Iterations 1
GAMG:  Solving for linP, Initial residual = 0.0270101, Final residual = 0.000110324, No Iterations 3
GAMG:  Solving for linP, Initial residual = 0.00245583, Final residual = 1.23339e-05, No Iterations 4
GAMG:  Solving for linP, Initial residual = 0.000721076, Final residual = 3.59123e-06, No Iterations 4
Adjoint continuity errors : sum local = 4.59422e-10, global = -6.29447e-11, cumulative = -8.15781e-10
GAMG:  Solving for linP, Initial residual = 0.000902016, Final residual = 8.27785e-06, No Iterations 3
GAMG:  Solving for linP, Initial residual = 0.000257936, Final residual = 9.85316e-07, No Iterations 4
GAMG:  Solving for linP, Initial residual = 8.99966e-05, Final residual = 4.94355e-07, No Iterations 4
Adjoint continuity errors : sum local = 6.3218e-11, global = -2.36385e-12, cumulative = -8.18145e-10
PIMPLE: iteration 3
DILUPBiCG:  Solving for linUx, Initial residual = 0.000159637, Final residual = 9.08146e-07, No Iterations 1
DILUPBiCG:  Solving for linUy, Initial residual = 0.000277287, Final residual = 4.94983e-06, No Iterations 1
DILUPBiCG:  Solving for linUz, Initial residual = 0.000323104, Final residual = 9.81404e-07, No Iterations 1
GAMG:  Solving for linP, Initial residual = 0.0405592, Final residual = 0.000404322, No Iterations 2
GAMG:  Solving for linP, Initial residual = 0.00213625, Final residual = 1.05085e-05, No Iterations 4
GAMG:  Solving for linP, Initial residual = 0.000788903, Final residual = 4.69764e-06, No Iterations 4
Adjoint continuity errors : sum local = 6.24633e-10, global = -1.17422e-10, cumulative = -9.35567e-10
GAMG:  Solving for linP, Initial residual = 0.00100677, Final residual = 7.0179e-06, No Iterations 3
GAMG:  Solving for linP, Initial residual = 0.000177144, Final residual = 1.58755e-06, No Iterations 7
GAMG:  Solving for linP, Initial residual = 8.14964e-05, Final residual = 8.72093e-07, No Iterations 4
Adjoint continuity errors : sum local = 1.16095e-10, global = -4.57784e-11, cumulative = -9.81345e-10
ExecutionTime = 10.75 s  ClockTime = 11 s

Time = 0.495

Reading field p

Reading field U

Read primal fluxes 

Reading primal face flux fields phi/meshPhi

Created primal fluxes 

Selecting incompressible transport model Newtonian
singlePhaseTransportModel gewaehlt 

Selecting turbulence model type RASModel
Selecting RAS turbulence model kOmegaSST
bounding k, min: 0 max: 0.000599327 average: 0.000151084
kOmegaSSTCoeffs
{
    alphaK1         0.85034;
    alphaK2         1;
    alphaOmega1     0.5;
    alphaOmega2     0.85616;
    gamma1          0.5532;
    gamma2          0.4403;
    beta1           0.075;
    beta2           0.0828;
    betaStar        0.09;
    a1              0.31;
    c1              10;
    Cmu             0.09;
    b1              1;
    F3              false;
}

autoPtr ausgefuehrt

Reading/calculating face velocity Uf

Init adjoint face velocity linUf

Courant Number mean: 0.10303 max: 0.236469
Adjoint Courant Number mean: 0.000317284 max: 0.00837331
GAMG:  Solving for cellDisplacementx, Initial residual = 0, Final residual = 0, No Iterations 0
GAMG:  Solving for cellDisplacementy, Initial residual = 0, Final residual = 0, No Iterations 0
GAMG:  Solving for cellDisplacementz, Initial residual = 0, Final residual = 0, No Iterations 0
PIMPLE: iteration 1
DILUPBiCG:  Solving for linUx, Initial residual = 0.0121566, Final residual = 2.6063e-05, No Iterations 1
DILUPBiCG:  Solving for linUy, Initial residual = 0.022902, Final residual = 4.89069e-05, No Iterations 1
DILUPBiCG:  Solving for linUz, Initial residual = 0.0303806, Final residual = 4.28239e-05, No Iterations 1
GAMG:  Solving for linP, Initial residual = 0.284619, Final residual = 0.000850919, No Iterations 3
GAMG:  Solving for linP, Initial residual = 0.00984586, Final residual = 5.77694e-05, No Iterations 4
GAMG:  Solving for linP, Initial residual = 0.00257301, Final residual = 2.04242e-05, No Iterations 4
Adjoint continuity errors : sum local = 3.55931e-09, global = 5.95086e-10, cumulative = -3.86259e-10
GAMG:  Solving for linP, Initial residual = 0.00541231, Final residual = 4.21501e-05, No Iterations 3
GAMG:  Solving for linP, Initial residual = 0.00105137, Final residual = 6.50557e-06, No Iterations 4
GAMG:  Solving for linP, Initial residual = 0.000343774, Final residual = 3.1139e-06, No Iterations 3
Adjoint continuity errors : sum local = 5.40211e-10, global = 1.86853e-10, cumulative = -1.99406e-10
PIMPLE: iteration 2
DILUPBiCG:  Solving for linUx, Initial residual = 0.00115724, Final residual = 4.41177e-06, No Iterations 1
DILUPBiCG:  Solving for linUy, Initial residual = 0.00208918, Final residual = 1.45767e-05, No Iterations 1
DILUPBiCG:  Solving for linUz, Initial residual = 0.00239361, Final residual = 4.08675e-06, No Iterations 1
GAMG:  Solving for linP, Initial residual = 0.0132375, Final residual = 5.36219e-05, No Iterations 3
GAMG:  Solving for linP, Initial residual = 0.000877981, Final residual = 5.52373e-06, No Iterations 4
GAMG:  Solving for linP, Initial residual = 0.000288414, Final residual = 2.67616e-06, No Iterations 4
Adjoint continuity errors : sum local = 4.70975e-10, global = 3.89408e-11, cumulative = -1.60465e-10
GAMG:  Solving for linP, Initial residual = 0.000384133, Final residual = 3.80316e-06, No Iterations 3
GAMG:  Solving for linP, Initial residual = 9.59534e-05, Final residual = 9.9014e-07, No Iterations 3
GAMG:  Solving for linP, Initial residual = 3.57735e-05, Final residual = 5.7047e-07, No Iterations 3
Adjoint continuity errors : sum local = 1.0039e-10, global = -1.23396e-11, cumulative = -1.72805e-10
PIMPLE: iteration 3
DILUPBiCG:  Solving for linUx, Initial residual = 0.00014453, Final residual = 8.21532e-07, No Iterations 1
DILUPBiCG:  Solving for linUy, Initial residual = 0.000251403, Final residual = 2.95492e-06, No Iterations 1
DILUPBiCG:  Solving for linUz, Initial residual = 0.000286562, Final residual = 8.09556e-07, No Iterations 1
GAMG:  Solving for linP, Initial residual = 0.0463577, Final residual = 0.000147919, No Iterations 3
GAMG:  Solving for linP, Initial residual = 0.00173062, Final residual = 1.14457e-05, No Iterations 4
GAMG:  Solving for linP, Initial residual = 0.000576485, Final residual = 4.48172e-06, No Iterations 4
Adjoint continuity errors : sum local = 8.08532e-10, global = 7.28218e-11, cumulative = -9.99831e-11
GAMG:  Solving for linP, Initial residual = 0.000958947, Final residual = 5.81964e-06, No Iterations 3
GAMG:  Solving for linP, Initial residual = 0.000141033, Final residual = 1.0973e-06, No Iterations 4
GAMG:  Solving for linP, Initial residual = 5.49356e-05, Final residual = 3.39162e-07, No Iterations 4
Adjoint continuity errors : sum local = 6.12524e-11, global = 4.26545e-12, cumulative = -9.57177e-11
ExecutionTime = 14.44 s  ClockTime = 15 s

End

