/*---------------------------------------------------------------------------*\
| =========                 |                                                 |
| \\      /  F ield         | OpenFOAM: The Open Source CFD Toolbox           |
|  \\    /   O peration     | Version:  2.3.1                                 |
|   \\  /    A nd           | Web:      www.OpenFOAM.org                      |
|    \\/     M anipulation  |                                                 |
\*---------------------------------------------------------------------------*/
Build  : 2.3.1-262087cdf8db
Exec   : linearisedPimpleDyMFoam
Date   : Jun 06 2023
Time   : 02:19:01
Host   : "jcosson-VirtualBox"
PID    : 27499
Case   : /home/jcosson/workspace/henersj_shootingdata/calcs/moderate_deformed/primal/100_intervals_05-06-23/sweep57/interval99
nProcs : 1
sigFpe : Enabling floating point exception trapping (FOAM_SIGFPE).
fileModificationChecking : Monitoring run-time modified files using timeStampMaster
allowSystemOperations : Allowing user-supplied system call operations

// * * * * * * * * * * * * * * * * * * * * * * * * * * * * * * * * * * * * * //
Create time

Create mesh for time = 0.498

Selecting dynamicFvMesh dynamicMotionSolverFvMesh
Selecting motion solver: displacementLaplacian
Selecting motion diffusion: quadratic
Selecting motion diffusion: quadratic
Selecting motion diffusion: inverseDistance
Reading field linP

Reading field linU

starte createPhia.H

Reading/calculating face flux field linPhi

Adjungierte Interpolation durchgefuehrt

createPhia.H verlassen

setRefCell ausgefuehrt

No finite volume options present


PIMPLE: no residual control data found. Calculations will employ 3 corrector loops


Starting time loop

Time = 0.499

Reading field p

Reading field U

Read primal fluxes 

Reading primal face flux fields phi/meshPhi

Created primal fluxes 

Selecting incompressible transport model Newtonian
singlePhaseTransportModel gewaehlt 

Selecting turbulence model type RASModel
Selecting RAS turbulence model kOmegaSST
bounding k, min: 0 max: 0.000499124 average: 0.000144838
kOmegaSSTCoeffs
{
    alphaK1         0.85034;
    alphaK2         1;
    alphaOmega1     0.5;
    alphaOmega2     0.85616;
    gamma1          0.5532;
    gamma2          0.4403;
    beta1           0.075;
    beta2           0.0828;
    betaStar        0.09;
    a1              0.31;
    c1              10;
    Cmu             0.09;
    b1              1;
    F3              false;
}

autoPtr ausgefuehrt

Reading/calculating face velocity Uf

Init adjoint face velocity linUf

Courant Number mean: 0.098976 max: 0.224637
Adjoint Courant Number mean: 0.000122335 max: 0.00193426
GAMG:  Solving for cellDisplacementx, Initial residual = 0, Final residual = 0, No Iterations 0
GAMG:  Solving for cellDisplacementy, Initial residual = 0, Final residual = 0, No Iterations 0
GAMG:  Solving for cellDisplacementz, Initial residual = 0, Final residual = 0, No Iterations 0
PIMPLE: iteration 1
DILUPBiCG:  Solving for linUx, Initial residual = 0.01383, Final residual = 4.61293e-05, No Iterations 1
DILUPBiCG:  Solving for linUy, Initial residual = 0.0246606, Final residual = 6.2981e-05, No Iterations 1
DILUPBiCG:  Solving for linUz, Initial residual = 0.0516007, Final residual = 9.67815e-05, No Iterations 1
GAMG:  Solving for linP, Initial residual = 1, Final residual = 0.00415916, No Iterations 3
GAMG:  Solving for linP, Initial residual = 0.0259264, Final residual = 0.000231629, No Iterations 4
GAMG:  Solving for linP, Initial residual = 0.00818673, Final residual = 3.97135e-05, No Iterations 4
Adjoint continuity errors : sum local = 1.89647e-09, global = -1.91229e-10, cumulative = -1.91229e-10
GAMG:  Solving for linP, Initial residual = 0.0195675, Final residual = 7.54966e-05, No Iterations 4
GAMG:  Solving for linP, Initial residual = 0.00421414, Final residual = 2.35472e-05, No Iterations 4
GAMG:  Solving for linP, Initial residual = 0.00146776, Final residual = 1.27493e-05, No Iterations 4
Adjoint continuity errors : sum local = 5.95703e-10, global = 4.46669e-11, cumulative = -1.46562e-10
PIMPLE: iteration 2
DILUPBiCG:  Solving for linUx, Initial residual = 0.00135416, Final residual = 1.02386e-05, No Iterations 1
DILUPBiCG:  Solving for linUy, Initial residual = 0.00262166, Final residual = 3.06728e-05, No Iterations 1
DILUPBiCG:  Solving for linUz, Initial residual = 0.00429163, Final residual = 9.34944e-06, No Iterations 1
GAMG:  Solving for linP, Initial residual = 0.0273601, Final residual = 0.000110905, No Iterations 3
GAMG:  Solving for linP, Initial residual = 0.00286913, Final residual = 1.37004e-05, No Iterations 4
GAMG:  Solving for linP, Initial residual = 0.000871017, Final residual = 4.41285e-06, No Iterations 4
Adjoint continuity errors : sum local = 2.10652e-10, global = -2.902e-11, cumulative = -1.75582e-10
GAMG:  Solving for linP, Initial residual = 0.000987292, Final residual = 4.42185e-06, No Iterations 4
GAMG:  Solving for linP, Initial residual = 0.000340198, Final residual = 3.01816e-06, No Iterations 3
GAMG:  Solving for linP, Initial residual = 0.000119391, Final residual = 7.97308e-07, No Iterations 4
Adjoint continuity errors : sum local = 3.80409e-11, global = -3.85738e-12, cumulative = -1.79439e-10
PIMPLE: iteration 3
DILUPBiCG:  Solving for linUx, Initial residual = 0.000138354, Final residual = 1.13684e-06, No Iterations 1
DILUPBiCG:  Solving for linUy, Initial residual = 0.000240606, Final residual = 2.97555e-06, No Iterations 1
DILUPBiCG:  Solving for linUz, Initial residual = 0.000362889, Final residual = 4.32621e-06, No Iterations 1
GAMG:  Solving for linP, Initial residual = 0.0367259, Final residual = 0.000294121, No Iterations 2
GAMG:  Solving for linP, Initial residual = 0.00204763, Final residual = 2.01953e-05, No Iterations 3
GAMG:  Solving for linP, Initial residual = 0.000723367, Final residual = 2.82295e-06, No Iterations 4
Adjoint continuity errors : sum local = 1.40597e-10, global = 2.22376e-11, cumulative = -1.57202e-10
GAMG:  Solving for linP, Initial residual = 0.000961984, Final residual = 5.07683e-06, No Iterations 3
GAMG:  Solving for linP, Initial residual = 0.000174374, Final residual = 1.02621e-06, No Iterations 4
GAMG:  Solving for linP, Initial residual = 6.93367e-05, Final residual = 8.95623e-07, No Iterations 3
Adjoint continuity errors : sum local = 4.46551e-11, global = -5.1832e-12, cumulative = -1.62385e-10
ExecutionTime = 10.43 s  ClockTime = 10 s

End

