/*---------------------------------------------------------------------------*\
| =========                 |                                                 |
| \\      /  F ield         | OpenFOAM: The Open Source CFD Toolbox           |
|  \\    /   O peration     | Version:  2.3.1                                 |
|   \\  /    A nd           | Web:      www.OpenFOAM.org                      |
|    \\/     M anipulation  |                                                 |
\*---------------------------------------------------------------------------*/
Build  : 2.3.1-262087cdf8db
Exec   : pimpleDyMFoam
Date   : Jun 06 2023
Time   : 02:48:26
Host   : "jcosson-VirtualBox"
PID    : 9854
Case   : /home/jcosson/workspace/henersj_shootingdata/calcs/moderate_deformed/primal/100_intervals_05-06-23/sweep75/interval95
nProcs : 1
sigFpe : Enabling floating point exception trapping (FOAM_SIGFPE).
fileModificationChecking : Monitoring run-time modified files using timeStampMaster
allowSystemOperations : Allowing user-supplied system call operations

// * * * * * * * * * * * * * * * * * * * * * * * * * * * * * * * * * * * * * //
Create time

Create mesh for time = 0.494

Selecting dynamicFvMesh dynamicMotionSolverFvMesh
Selecting motion solver: displacementLaplacian
Selecting motion diffusion: quadratic
Selecting motion diffusion: quadratic
Selecting motion diffusion: inverseDistance

PIMPLE: no residual control data found. Calculations will employ 3 corrector loops

Reading field p

Reading field U

Reading/calculating face flux field phi

Selecting incompressible transport model Newtonian
Selecting turbulence model type RASModel
Selecting RAS turbulence model kOmegaSST
bounding k, min: 0 max: 0.000532182 average: 0.000145853
kOmegaSSTCoeffs
{
    alphaK1         0.85034;
    alphaK2         1;
    alphaOmega1     0.5;
    alphaOmega2     0.85616;
    gamma1          0.5532;
    gamma2          0.4403;
    beta1           0.075;
    beta2           0.0828;
    betaStar        0.09;
    a1              0.31;
    c1              10;
    Cmu             0.09;
    b1              1;
    F3              false;
}

Reading/calculating face velocity Uf

No finite volume options present

Courant Number mean: 0.104776 max: 0.225868

Starting time loop

Courant Number mean: 0.104776 max: 0.225868
Time = 0.495

GAMG:  Solving for cellDisplacementx, Initial residual = 0, Final residual = 0, No Iterations 0
GAMG:  Solving for cellDisplacementy, Initial residual = 0, Final residual = 0, No Iterations 0
GAMG:  Solving for cellDisplacementz, Initial residual = 0, Final residual = 0, No Iterations 0
PIMPLE: iteration 1
DILUPBiCG:  Solving for Ux, Initial residual = 0.0358133, Final residual = 0.000140416, No Iterations 1
DILUPBiCG:  Solving for Uy, Initial residual = 0.00759506, Final residual = 1.54118e-05, No Iterations 1
DILUPBiCG:  Solving for Uz, Initial residual = 0.00989058, Final residual = 1.21584e-05, No Iterations 1
GAMG:  Solving for p, Initial residual = 0.105035, Final residual = 0.000412646, No Iterations 4
GAMG:  Solving for p, Initial residual = 0.0145312, Final residual = 0.000121697, No Iterations 14
GAMG:  Solving for p, Initial residual = 0.00743946, Final residual = 5.56001e-05, No Iterations 4
time step continuity errors : sum local = 3.8354e-07, global = 1.32292e-07, cumulative = 1.32292e-07
GAMG:  Solving for p, Initial residual = 0.0494133, Final residual = 0.000186142, No Iterations 4
GAMG:  Solving for p, Initial residual = 0.00705722, Final residual = 6.98391e-05, No Iterations 12
GAMG:  Solving for p, Initial residual = 0.00368439, Final residual = 3.32034e-05, No Iterations 4
time step continuity errors : sum local = 2.30823e-07, global = 8.906e-08, cumulative = 2.21352e-07
PIMPLE: iteration 2
DILUPBiCG:  Solving for Ux, Initial residual = 0.00871684, Final residual = 5.46057e-05, No Iterations 1
DILUPBiCG:  Solving for Uy, Initial residual = 0.00188952, Final residual = 3.82655e-06, No Iterations 1
DILUPBiCG:  Solving for Uz, Initial residual = 0.00285286, Final residual = 0.000127014, No Iterations 1
GAMG:  Solving for p, Initial residual = 0.0473298, Final residual = 0.000329078, No Iterations 6
GAMG:  Solving for p, Initial residual = 0.0133001, Final residual = 0.000113732, No Iterations 12
GAMG:  Solving for p, Initial residual = 0.00426698, Final residual = 3.64816e-05, No Iterations 14
time step continuity errors : sum local = 2.21804e-07, global = -6.82936e-08, cumulative = 1.53058e-07
GAMG:  Solving for p, Initial residual = 0.0252394, Final residual = 0.000240877, No Iterations 5
GAMG:  Solving for p, Initial residual = 0.00696829, Final residual = 6.85507e-05, No Iterations 6
GAMG:  Solving for p, Initial residual = 0.00206369, Final residual = 1.88451e-05, No Iterations 13
time step continuity errors : sum local = 1.14703e-07, global = -2.96776e-08, cumulative = 1.23381e-07
PIMPLE: iteration 3
DILUPBiCG:  Solving for Ux, Initial residual = 0.00159214, Final residual = 8.62248e-08, No Iterations 3
DILUPBiCG:  Solving for Uy, Initial residual = 0.000379023, Final residual = 9.44908e-06, No Iterations 1
DILUPBiCG:  Solving for Uz, Initial residual = 0.00300609, Final residual = 1.23601e-07, No Iterations 3
GAMG:  Solving for p, Initial residual = 0.0537138, Final residual = 0.00037269, No Iterations 5
GAMG:  Solving for p, Initial residual = 0.0116739, Final residual = 0.000112581, No Iterations 14
GAMG:  Solving for p, Initial residual = 0.00647055, Final residual = 6.00516e-05, No Iterations 10
time step continuity errors : sum local = 4.04158e-07, global = -1.11021e-07, cumulative = 1.23598e-08
GAMG:  Solving for p, Initial residual = 0.00281955, Final residual = 2.30433e-05, No Iterations 8
GAMG:  Solving for p, Initial residual = 0.00148565, Final residual = 1.4021e-05, No Iterations 4
GAMG:  Solving for p, Initial residual = 0.000595609, Final residual = 9.24918e-07, No Iterations 25
time step continuity errors : sum local = 6.13642e-09, global = 1.96636e-09, cumulative = 1.43262e-08
DILUPBiCG:  Solving for omega, Initial residual = 0.00126695, Final residual = 6.78682e-07, No Iterations 1
DILUPBiCG:  Solving for k, Initial residual = 0.00315703, Final residual = 6.50358e-07, No Iterations 2
bounding k, min: 0 max: 0.000525549 average: 0.000145162
ExecutionTime = 13.41 s  ClockTime = 13 s

End

