/*---------------------------------------------------------------------------*\
| =========                 |                                                 |
| \\      /  F ield         | OpenFOAM: The Open Source CFD Toolbox           |
|  \\    /   O peration     | Version:  2.3.1                                 |
|   \\  /    A nd           | Web:      www.OpenFOAM.org                      |
|    \\/     M anipulation  |                                                 |
\*---------------------------------------------------------------------------*/
Build  : 2.3.1-262087cdf8db
Exec   : pimpleDyMFoam
Date   : Jun 04 2023
Time   : 17:00:42
Host   : "jcosson-VirtualBox"
PID    : 5118
Case   : /home/jcosson/workspace/henersj_shootingdata/calcs/moderate_deformed/primal/10_intervals_04-06-23/sweep9/interval10
nProcs : 1
sigFpe : Enabling floating point exception trapping (FOAM_SIGFPE).
fileModificationChecking : Monitoring run-time modified files using timeStampMaster
allowSystemOperations : Allowing user-supplied system call operations

// * * * * * * * * * * * * * * * * * * * * * * * * * * * * * * * * * * * * * //
Create time

Create mesh for time = 0.49

Selecting dynamicFvMesh dynamicMotionSolverFvMesh
Selecting motion solver: displacementLaplacian
Selecting motion diffusion: quadratic
Selecting motion diffusion: quadratic
Selecting motion diffusion: inverseDistance

PIMPLE: no residual control data found. Calculations will employ 3 corrector loops

Reading field p

Reading field U

Reading/calculating face flux field phi

Selecting incompressible transport model Newtonian
Selecting turbulence model type RASModel
Selecting RAS turbulence model kOmegaSST
bounding k, min: 0 max: 0.000577478 average: 0.000148264
kOmegaSSTCoeffs
{
    alphaK1         0.85034;
    alphaK2         1;
    alphaOmega1     0.5;
    alphaOmega2     0.85616;
    gamma1          0.5532;
    gamma2          0.4403;
    beta1           0.075;
    beta2           0.0828;
    betaStar        0.09;
    a1              0.31;
    c1              10;
    Cmu             0.09;
    b1              1;
    F3              false;
}

Reading/calculating face velocity Uf

No finite volume options present

Courant Number mean: 0.115591 max: 0.249852

Starting time loop

Courant Number mean: 0.115591 max: 0.249852
Time = 0.491

GAMG:  Solving for cellDisplacementx, Initial residual = 0, Final residual = 0, No Iterations 0
GAMG:  Solving for cellDisplacementy, Initial residual = 0, Final residual = 0, No Iterations 0
GAMG:  Solving for cellDisplacementz, Initial residual = 0, Final residual = 0, No Iterations 0
PIMPLE: iteration 1
DILUPBiCG:  Solving for Ux, Initial residual = 0.0518903, Final residual = 0.000203927, No Iterations 1
DILUPBiCG:  Solving for Uy, Initial residual = 0.0105558, Final residual = 2.19352e-05, No Iterations 1
DILUPBiCG:  Solving for Uz, Initial residual = 0.0127715, Final residual = 1.1483e-05, No Iterations 1
GAMG:  Solving for p, Initial residual = 0.113008, Final residual = 0.000644704, No Iterations 4
GAMG:  Solving for p, Initial residual = 0.0152112, Final residual = 0.00014102, No Iterations 16
GAMG:  Solving for p, Initial residual = 0.007253, Final residual = 6.00991e-05, No Iterations 4
time step continuity errors : sum local = 6.16934e-07, global = 2.09356e-07, cumulative = 2.09356e-07
GAMG:  Solving for p, Initial residual = 0.0515019, Final residual = 0.000281138, No Iterations 4
GAMG:  Solving for p, Initial residual = 0.00741414, Final residual = 7.24858e-05, No Iterations 14
GAMG:  Solving for p, Initial residual = 0.00365572, Final residual = 3.2377e-05, No Iterations 4
time step continuity errors : sum local = 3.34341e-07, global = 1.11476e-07, cumulative = 3.20832e-07
PIMPLE: iteration 2
DILUPBiCG:  Solving for Ux, Initial residual = 0.0132626, Final residual = 8.27055e-05, No Iterations 1
DILUPBiCG:  Solving for Uy, Initial residual = 0.00276576, Final residual = 5.70101e-06, No Iterations 1
DILUPBiCG:  Solving for Uz, Initial residual = 0.00273456, Final residual = 9.17798e-06, No Iterations 1
GAMG:  Solving for p, Initial residual = 0.0502909, Final residual = 0.000477017, No Iterations 5
GAMG:  Solving for p, Initial residual = 0.0113442, Final residual = 0.000109716, No Iterations 8
GAMG:  Solving for p, Initial residual = 0.00468709, Final residual = 2.79119e-05, No Iterations 5
time step continuity errors : sum local = 2.50882e-07, global = -5.81807e-08, cumulative = 2.62651e-07
GAMG:  Solving for p, Initial residual = 0.0266899, Final residual = 0.000233221, No Iterations 4
GAMG:  Solving for p, Initial residual = 0.00617771, Final residual = 5.38688e-05, No Iterations 12
GAMG:  Solving for p, Initial residual = 0.00235403, Final residual = 2.06724e-05, No Iterations 10
time step continuity errors : sum local = 1.86081e-07, global = -4.75745e-08, cumulative = 2.15077e-07
PIMPLE: iteration 3
DILUPBiCG:  Solving for Ux, Initial residual = 0.00274008, Final residual = 2.92857e-06, No Iterations 2
DILUPBiCG:  Solving for Uy, Initial residual = 0.000612117, Final residual = 5.15023e-06, No Iterations 1
DILUPBiCG:  Solving for Uz, Initial residual = 0.00423934, Final residual = 2.30877e-06, No Iterations 2
GAMG:  Solving for p, Initial residual = 0.0464622, Final residual = 0.000348695, No Iterations 5
GAMG:  Solving for p, Initial residual = 0.0106994, Final residual = 0.000100878, No Iterations 14
GAMG:  Solving for p, Initial residual = 0.00556355, Final residual = 5.26813e-05, No Iterations 10
time step continuity errors : sum local = 5.29697e-07, global = -1.41464e-07, cumulative = 7.36124e-08
GAMG:  Solving for p, Initial residual = 0.00260207, Final residual = 2.5704e-05, No Iterations 7
GAMG:  Solving for p, Initial residual = 0.00132205, Final residual = 1.05197e-05, No Iterations 6
GAMG:  Solving for p, Initial residual = 0.000514904, Final residual = 9.14616e-07, No Iterations 28
time step continuity errors : sum local = 9.08104e-09, global = 2.7624e-09, cumulative = 7.63748e-08
DILUPBiCG:  Solving for omega, Initial residual = 0.00118571, Final residual = 6.99071e-07, No Iterations 1
DILUPBiCG:  Solving for k, Initial residual = 0.00330851, Final residual = 6.7374e-07, No Iterations 2
bounding k, min: 0 max: 0.000562841 average: 0.000147483
ExecutionTime = 3.85 s  ClockTime = 4 s

Courant Number mean: 0.112391 max: 0.242797
Time = 0.492

GAMG:  Solving for cellDisplacementx, Initial residual = 0, Final residual = 0, No Iterations 0
GAMG:  Solving for cellDisplacementy, Initial residual = 0, Final residual = 0, No Iterations 0
GAMG:  Solving for cellDisplacementz, Initial residual = 0, Final residual = 0, No Iterations 0
PIMPLE: iteration 1
DILUPBiCG:  Solving for Ux, Initial residual = 0.0484725, Final residual = 0.000190618, No Iterations 1
DILUPBiCG:  Solving for Uy, Initial residual = 0.00993484, Final residual = 2.05096e-05, No Iterations 1
DILUPBiCG:  Solving for Uz, Initial residual = 0.0115963, Final residual = 1.11427e-05, No Iterations 1
GAMG:  Solving for p, Initial residual = 0.102853, Final residual = 0.000632259, No Iterations 4
GAMG:  Solving for p, Initial residual = 0.0132021, Final residual = 0.000121204, No Iterations 18
GAMG:  Solving for p, Initial residual = 0.00691439, Final residual = 6.19883e-05, No Iterations 4
time step continuity errors : sum local = 5.88223e-07, global = 2.13616e-07, cumulative = 2.89991e-07
GAMG:  Solving for p, Initial residual = 0.0472402, Final residual = 0.000266816, No Iterations 4
GAMG:  Solving for p, Initial residual = 0.0064321, Final residual = 6.30212e-05, No Iterations 16
GAMG:  Solving for p, Initial residual = 0.00345276, Final residual = 2.95268e-05, No Iterations 4
time step continuity errors : sum local = 2.8203e-07, global = 9.47695e-08, cumulative = 3.84761e-07
PIMPLE: iteration 2
DILUPBiCG:  Solving for Ux, Initial residual = 0.0122727, Final residual = 7.67674e-05, No Iterations 1
DILUPBiCG:  Solving for Uy, Initial residual = 0.00258752, Final residual = 5.32057e-06, No Iterations 1
DILUPBiCG:  Solving for Uz, Initial residual = 0.00282962, Final residual = 1.08283e-05, No Iterations 1
GAMG:  Solving for p, Initial residual = 0.0450449, Final residual = 0.000320803, No Iterations 6
GAMG:  Solving for p, Initial residual = 0.010028, Final residual = 9.57514e-05, No Iterations 14
GAMG:  Solving for p, Initial residual = 0.00371869, Final residual = 3.20472e-05, No Iterations 12
time step continuity errors : sum local = 2.67333e-07, global = -7.87408e-08, cumulative = 3.0602e-07
GAMG:  Solving for p, Initial residual = 0.0237627, Final residual = 0.000143713, No Iterations 6
GAMG:  Solving for p, Initial residual = 0.00515038, Final residual = 5.01907e-05, No Iterations 12
GAMG:  Solving for p, Initial residual = 0.00176876, Final residual = 1.68517e-05, No Iterations 12
time step continuity errors : sum local = 1.4095e-07, global = -4.12685e-08, cumulative = 2.64751e-07
PIMPLE: iteration 3
DILUPBiCG:  Solving for Ux, Initial residual = 0.00247845, Final residual = 3.03827e-06, No Iterations 2
DILUPBiCG:  Solving for Uy, Initial residual = 0.000567765, Final residual = 5.43678e-06, No Iterations 1
DILUPBiCG:  Solving for Uz, Initial residual = 0.00442787, Final residual = 2.42364e-06, No Iterations 2
GAMG:  Solving for p, Initial residual = 0.0476316, Final residual = 0.000342649, No Iterations 5
GAMG:  Solving for p, Initial residual = 0.0106385, Final residual = 0.000101179, No Iterations 14
GAMG:  Solving for p, Initial residual = 0.00565641, Final residual = 5.3654e-05, No Iterations 10
time step continuity errors : sum local = 4.99409e-07, global = -1.33245e-07, cumulative = 1.31507e-07
GAMG:  Solving for p, Initial residual = 0.00262485, Final residual = 2.10845e-05, No Iterations 8
GAMG:  Solving for p, Initial residual = 0.00138673, Final residual = 1.3415e-05, No Iterations 4
GAMG:  Solving for p, Initial residual = 0.000574248, Final residual = 9.14528e-07, No Iterations 23
time step continuity errors : sum local = 8.40414e-09, global = 2.60494e-09, cumulative = 1.34112e-07
DILUPBiCG:  Solving for omega, Initial residual = 0.0012101, Final residual = 6.92556e-07, No Iterations 1
DILUPBiCG:  Solving for k, Initial residual = 0.00325893, Final residual = 6.647e-07, No Iterations 2
bounding k, min: 0 max: 0.000547666 average: 0.000146729
ExecutionTime = 6.82 s  ClockTime = 7 s

Courant Number mean: 0.109498 max: 0.236569
Time = 0.493

GAMG:  Solving for cellDisplacementx, Initial residual = 0, Final residual = 0, No Iterations 0
GAMG:  Solving for cellDisplacementy, Initial residual = 0, Final residual = 0, No Iterations 0
GAMG:  Solving for cellDisplacementz, Initial residual = 0, Final residual = 0, No Iterations 0
PIMPLE: iteration 1
DILUPBiCG:  Solving for Ux, Initial residual = 0.0446305, Final residual = 0.000175748, No Iterations 1
DILUPBiCG:  Solving for Uy, Initial residual = 0.00929365, Final residual = 1.91488e-05, No Iterations 1
DILUPBiCG:  Solving for Uz, Initial residual = 0.0117919, Final residual = 1.11431e-05, No Iterations 1
GAMG:  Solving for p, Initial residual = 0.102261, Final residual = 0.000508489, No Iterations 4
GAMG:  Solving for p, Initial residual = 0.012757, Final residual = 0.000112484, No Iterations 18
GAMG:  Solving for p, Initial residual = 0.00667623, Final residual = 5.58637e-05, No Iterations 4
time step continuity errors : sum local = 4.85559e-07, global = 1.58913e-07, cumulative = 2.93025e-07
GAMG:  Solving for p, Initial residual = 0.0473519, Final residual = 0.000219041, No Iterations 4
GAMG:  Solving for p, Initial residual = 0.00613679, Final residual = 5.89493e-05, No Iterations 16
GAMG:  Solving for p, Initial residual = 0.00337814, Final residual = 2.80217e-05, No Iterations 4
time step continuity errors : sum local = 2.44829e-07, global = 8.69376e-08, cumulative = 3.79963e-07
PIMPLE: iteration 2
DILUPBiCG:  Solving for Ux, Initial residual = 0.0111913, Final residual = 7.02418e-05, No Iterations 1
DILUPBiCG:  Solving for Uy, Initial residual = 0.00238028, Final residual = 4.87856e-06, No Iterations 1
DILUPBiCG:  Solving for Uz, Initial residual = 0.00272697, Final residual = 2.47806e-05, No Iterations 1
GAMG:  Solving for p, Initial residual = 0.0451387, Final residual = 0.000308935, No Iterations 6
GAMG:  Solving for p, Initial residual = 0.0113614, Final residual = 0.000113377, No Iterations 12
GAMG:  Solving for p, Initial residual = 0.00423471, Final residual = 3.84515e-05, No Iterations 12
time step continuity errors : sum local = 2.92599e-07, global = -8.66374e-08, cumulative = 2.93325e-07
GAMG:  Solving for p, Initial residual = 0.0241067, Final residual = 0.000218902, No Iterations 5
GAMG:  Solving for p, Initial residual = 0.00643542, Final residual = 6.01916e-05, No Iterations 8
GAMG:  Solving for p, Initial residual = 0.00203592, Final residual = 1.55098e-05, No Iterations 6
time step continuity errors : sum local = 1.18036e-07, global = 4.13644e-08, cumulative = 3.3469e-07
PIMPLE: iteration 3
DILUPBiCG:  Solving for Ux, Initial residual = 0.00219175, Final residual = 3.55749e-06, No Iterations 2
DILUPBiCG:  Solving for Uy, Initial residual = 0.000503028, Final residual = 5.94671e-06, No Iterations 1
DILUPBiCG:  Solving for Uz, Initial residual = 0.00361118, Final residual = 2.7516e-06, No Iterations 2
GAMG:  Solving for p, Initial residual = 0.0484565, Final residual = 0.000360627, No Iterations 5
GAMG:  Solving for p, Initial residual = 0.0111103, Final residual = 0.000106084, No Iterations 14
GAMG:  Solving for p, Initial residual = 0.00596337, Final residual = 5.56163e-05, No Iterations 10
time step continuity errors : sum local = 4.71684e-07, global = -1.27467e-07, cumulative = 2.07223e-07
GAMG:  Solving for p, Initial residual = 0.00267912, Final residual = 2.2088e-05, No Iterations 8
GAMG:  Solving for p, Initial residual = 0.00134184, Final residual = 1.29882e-05, No Iterations 4
GAMG:  Solving for p, Initial residual = 0.000517755, Final residual = 9.45305e-07, No Iterations 21
time step continuity errors : sum local = 7.91e-09, global = 2.34823e-09, cumulative = 2.09571e-07
DILUPBiCG:  Solving for omega, Initial residual = 0.00123108, Final residual = 6.86154e-07, No Iterations 1
DILUPBiCG:  Solving for k, Initial residual = 0.00321235, Final residual = 6.57711e-07, No Iterations 2
bounding k, min: 0 max: 0.00053916 average: 0.000146
ExecutionTime = 9.53 s  ClockTime = 10 s

Courant Number mean: 0.106913 max: 0.231237
Time = 0.494

GAMG:  Solving for cellDisplacementx, Initial residual = 0, Final residual = 0, No Iterations 0
GAMG:  Solving for cellDisplacementy, Initial residual = 0, Final residual = 0, No Iterations 0
GAMG:  Solving for cellDisplacementz, Initial residual = 0, Final residual = 0, No Iterations 0
PIMPLE: iteration 1
DILUPBiCG:  Solving for Ux, Initial residual = 0.0404023, Final residual = 0.000159496, No Iterations 1
DILUPBiCG:  Solving for Uy, Initial residual = 0.00848484, Final residual = 1.73965e-05, No Iterations 1
DILUPBiCG:  Solving for Uz, Initial residual = 0.0106726, Final residual = 1.13875e-05, No Iterations 1
GAMG:  Solving for p, Initial residual = 0.0992747, Final residual = 0.000473585, No Iterations 4
GAMG:  Solving for p, Initial residual = 0.0128627, Final residual = 0.000124446, No Iterations 16
GAMG:  Solving for p, Initial residual = 0.00700117, Final residual = 5.88917e-05, No Iterations 4
time step continuity errors : sum local = 4.59951e-07, global = 1.60246e-07, cumulative = 3.69817e-07
GAMG:  Solving for p, Initial residual = 0.0464288, Final residual = 0.000206418, No Iterations 4
GAMG:  Solving for p, Initial residual = 0.00620335, Final residual = 5.79644e-05, No Iterations 16
GAMG:  Solving for p, Initial residual = 0.00351579, Final residual = 2.79521e-05, No Iterations 4
time step continuity errors : sum local = 2.20188e-07, global = 7.52034e-08, cumulative = 4.45021e-07
PIMPLE: iteration 2
DILUPBiCG:  Solving for Ux, Initial residual = 0.0100118, Final residual = 6.31263e-05, No Iterations 1
DILUPBiCG:  Solving for Uy, Initial residual = 0.00215003, Final residual = 4.40388e-06, No Iterations 1
DILUPBiCG:  Solving for Uz, Initial residual = 0.00286037, Final residual = 3.81574e-05, No Iterations 1
GAMG:  Solving for p, Initial residual = 0.0437667, Final residual = 0.000331876, No Iterations 6
GAMG:  Solving for p, Initial residual = 0.0112225, Final residual = 9.75225e-05, No Iterations 14
GAMG:  Solving for p, Initial residual = 0.00395632, Final residual = 3.44468e-05, No Iterations 12
time step continuity errors : sum local = 2.37097e-07, global = -6.96623e-08, cumulative = 3.75359e-07
GAMG:  Solving for p, Initial residual = 0.0233399, Final residual = 0.000150501, No Iterations 6
GAMG:  Solving for p, Initial residual = 0.00586126, Final residual = 5.10622e-05, No Iterations 12
GAMG:  Solving for p, Initial residual = 0.0018681, Final residual = 1.82999e-05, No Iterations 12
time step continuity errors : sum local = 1.26234e-07, global = -3.67903e-08, cumulative = 3.38568e-07
PIMPLE: iteration 3
DILUPBiCG:  Solving for Ux, Initial residual = 0.00191028, Final residual = 5.52477e-06, No Iterations 2
DILUPBiCG:  Solving for Uy, Initial residual = 0.000450442, Final residual = 6.90398e-06, No Iterations 1
DILUPBiCG:  Solving for Uz, Initial residual = 0.00370998, Final residual = 3.43913e-06, No Iterations 2
GAMG:  Solving for p, Initial residual = 0.0507152, Final residual = 0.000361916, No Iterations 5
GAMG:  Solving for p, Initial residual = 0.0111884, Final residual = 0.000107422, No Iterations 14
GAMG:  Solving for p, Initial residual = 0.00608203, Final residual = 5.7461e-05, No Iterations 10
time step continuity errors : sum local = 4.3959e-07, global = -1.18983e-07, cumulative = 2.19586e-07
GAMG:  Solving for p, Initial residual = 0.00273694, Final residual = 2.2824e-05, No Iterations 8
GAMG:  Solving for p, Initial residual = 0.00143294, Final residual = 1.37462e-05, No Iterations 4
GAMG:  Solving for p, Initial residual = 0.000587621, Final residual = 9.55327e-07, No Iterations 23
time step continuity errors : sum local = 7.20987e-09, global = 2.33078e-09, cumulative = 2.21916e-07
DILUPBiCG:  Solving for omega, Initial residual = 0.00124872, Final residual = 6.80067e-07, No Iterations 1
DILUPBiCG:  Solving for k, Initial residual = 0.00316937, Final residual = 6.56172e-07, No Iterations 2
bounding k, min: 0 max: 0.000532216 average: 0.000145295
ExecutionTime = 12.24 s  ClockTime = 13 s

Courant Number mean: 0.104656 max: 0.226561
Time = 0.495

GAMG:  Solving for cellDisplacementx, Initial residual = 0, Final residual = 0, No Iterations 0
GAMG:  Solving for cellDisplacementy, Initial residual = 0, Final residual = 0, No Iterations 0
GAMG:  Solving for cellDisplacementz, Initial residual = 0, Final residual = 0, No Iterations 0
PIMPLE: iteration 1
DILUPBiCG:  Solving for Ux, Initial residual = 0.0358569, Final residual = 0.000141761, No Iterations 1
DILUPBiCG:  Solving for Uy, Initial residual = 0.00762335, Final residual = 1.56038e-05, No Iterations 1
DILUPBiCG:  Solving for Uz, Initial residual = 0.0107425, Final residual = 1.18189e-05, No Iterations 1
GAMG:  Solving for p, Initial residual = 0.0980313, Final residual = 0.000464258, No Iterations 4
GAMG:  Solving for p, Initial residual = 0.0119393, Final residual = 0.000108283, No Iterations 16
GAMG:  Solving for p, Initial residual = 0.00646816, Final residual = 4.89416e-05, No Iterations 4
time step continuity errors : sum local = 3.3921e-07, global = 1.18777e-07, cumulative = 3.40693e-07
GAMG:  Solving for p, Initial residual = 0.0464327, Final residual = 0.000221987, No Iterations 4
GAMG:  Solving for p, Initial residual = 0.00573758, Final residual = 5.16816e-05, No Iterations 16
GAMG:  Solving for p, Initial residual = 0.00329812, Final residual = 2.50416e-05, No Iterations 4
time step continuity errors : sum local = 1.74611e-07, global = 6.18152e-08, cumulative = 4.02508e-07
PIMPLE: iteration 2
DILUPBiCG:  Solving for Ux, Initial residual = 0.00874739, Final residual = 5.54919e-05, No Iterations 1
DILUPBiCG:  Solving for Uy, Initial residual = 0.00189403, Final residual = 3.87421e-06, No Iterations 1
DILUPBiCG:  Solving for Uz, Initial residual = 0.00284109, Final residual = 0.000228824, No Iterations 1
GAMG:  Solving for p, Initial residual = 0.0436948, Final residual = 0.000321629, No Iterations 6
GAMG:  Solving for p, Initial residual = 0.0133235, Final residual = 0.000112575, No Iterations 12
GAMG:  Solving for p, Initial residual = 0.00427677, Final residual = 3.65672e-05, No Iterations 14
time step continuity errors : sum local = 2.22267e-07, global = -6.79573e-08, cumulative = 3.34551e-07
GAMG:  Solving for p, Initial residual = 0.023309, Final residual = 0.000226672, No Iterations 5
GAMG:  Solving for p, Initial residual = 0.00729214, Final residual = 6.58272e-05, No Iterations 9
GAMG:  Solving for p, Initial residual = 0.00202996, Final residual = 1.75416e-05, No Iterations 16
time step continuity errors : sum local = 1.06654e-07, global = -3.0647e-08, cumulative = 3.03904e-07
PIMPLE: iteration 3
DILUPBiCG:  Solving for Ux, Initial residual = 0.00158697, Final residual = 9.24841e-08, No Iterations 3
DILUPBiCG:  Solving for Uy, Initial residual = 0.000374682, Final residual = 9.5542e-06, No Iterations 1
DILUPBiCG:  Solving for Uz, Initial residual = 0.00287584, Final residual = 1.3595e-07, No Iterations 3
GAMG:  Solving for p, Initial residual = 0.0526513, Final residual = 0.00038226, No Iterations 5
GAMG:  Solving for p, Initial residual = 0.0117578, Final residual = 0.000114687, No Iterations 14
GAMG:  Solving for p, Initial residual = 0.00661735, Final residual = 6.03622e-05, No Iterations 10
time step continuity errors : sum local = 4.06362e-07, global = -1.11675e-07, cumulative = 1.92229e-07
GAMG:  Solving for p, Initial residual = 0.00282422, Final residual = 2.29802e-05, No Iterations 8
GAMG:  Solving for p, Initial residual = 0.00142048, Final residual = 1.35401e-05, No Iterations 4
GAMG:  Solving for p, Initial residual = 0.000532067, Final residual = 9.1703e-07, No Iterations 23
time step continuity errors : sum local = 6.08288e-09, global = 2.00137e-09, cumulative = 1.9423e-07
DILUPBiCG:  Solving for omega, Initial residual = 0.00126253, Final residual = 6.74476e-07, No Iterations 1
DILUPBiCG:  Solving for k, Initial residual = 0.00312901, Final residual = 6.62267e-07, No Iterations 2
bounding k, min: 0 max: 0.000525503 average: 0.000144615
ExecutionTime = 14.96 s  ClockTime = 15 s

Courant Number mean: 0.102726 max: 0.222559
Time = 0.496

GAMG:  Solving for cellDisplacementx, Initial residual = 0, Final residual = 0, No Iterations 0
GAMG:  Solving for cellDisplacementy, Initial residual = 0, Final residual = 0, No Iterations 0
GAMG:  Solving for cellDisplacementz, Initial residual = 0, Final residual = 0, No Iterations 0
PIMPLE: iteration 1
DILUPBiCG:  Solving for Ux, Initial residual = 0.0309182, Final residual = 0.00012283, No Iterations 1
DILUPBiCG:  Solving for Uy, Initial residual = 0.00662695, Final residual = 1.34946e-05, No Iterations 1
DILUPBiCG:  Solving for Uz, Initial residual = 0.00914323, Final residual = 1.25169e-05, No Iterations 1
GAMG:  Solving for p, Initial residual = 0.0941002, Final residual = 0.000443088, No Iterations 4
GAMG:  Solving for p, Initial residual = 0.0123019, Final residual = 0.000106019, No Iterations 10
GAMG:  Solving for p, Initial residual = 0.00644813, Final residual = 5.19599e-05, No Iterations 4
time step continuity errors : sum local = 3.11192e-07, global = 1.04239e-07, cumulative = 2.98469e-07
GAMG:  Solving for p, Initial residual = 0.0450449, Final residual = 0.000208806, No Iterations 4
GAMG:  Solving for p, Initial residual = 0.00586956, Final residual = 4.94062e-05, No Iterations 12
GAMG:  Solving for p, Initial residual = 0.00324071, Final residual = 2.3936e-05, No Iterations 4
time step continuity errors : sum local = 1.44508e-07, global = 5.01312e-08, cumulative = 3.486e-07
PIMPLE: iteration 2
DILUPBiCG:  Solving for Ux, Initial residual = 0.00740652, Final residual = 4.73734e-05, No Iterations 1
DILUPBiCG:  Solving for Uy, Initial residual = 0.00161703, Final residual = 3.32371e-06, No Iterations 1
DILUPBiCG:  Solving for Uz, Initial residual = 0.0029753, Final residual = 1.58709e-06, No Iterations 2
GAMG:  Solving for p, Initial residual = 0.0418251, Final residual = 0.000349803, No Iterations 6
GAMG:  Solving for p, Initial residual = 0.013894, Final residual = 0.000138791, No Iterations 10
GAMG:  Solving for p, Initial residual = 0.00410653, Final residual = 3.90859e-05, No Iterations 16
time step continuity errors : sum local = 2.06297e-07, global = -6.1814e-08, cumulative = 2.86786e-07
GAMG:  Solving for p, Initial residual = 0.0224299, Final residual = 0.000160131, No Iterations 6
GAMG:  Solving for p, Initial residual = 0.00738118, Final residual = 6.10724e-05, No Iterations 10
GAMG:  Solving for p, Initial residual = 0.00195562, Final residual = 1.73035e-05, No Iterations 16
time step continuity errors : sum local = 9.13173e-08, global = -2.71753e-08, cumulative = 2.59611e-07
PIMPLE: iteration 3
DILUPBiCG:  Solving for Ux, Initial residual = 0.00126907, Final residual = 2.29386e-06, No Iterations 2
DILUPBiCG:  Solving for Uy, Initial residual = 0.000309045, Final residual = 1.02611e-07, No Iterations 2
DILUPBiCG:  Solving for Uz, Initial residual = 0.00288279, Final residual = 4.92139e-06, No Iterations 2
GAMG:  Solving for p, Initial residual = 0.0563411, Final residual = 0.000390245, No Iterations 5
GAMG:  Solving for p, Initial residual = 0.0118017, Final residual = 0.00011801, No Iterations 14
GAMG:  Solving for p, Initial residual = 0.00675126, Final residual = 6.26663e-05, No Iterations 10
time step continuity errors : sum local = 3.64454e-07, global = -1.01264e-07, cumulative = 1.58347e-07
GAMG:  Solving for p, Initial residual = 0.00280967, Final residual = 2.42276e-05, No Iterations 8
GAMG:  Solving for p, Initial residual = 0.00148388, Final residual = 1.4733e-05, No Iterations 4
GAMG:  Solving for p, Initial residual = 0.000584972, Final residual = 9.41711e-07, No Iterations 27
time step continuity errors : sum local = 5.40019e-09, global = 1.66023e-09, cumulative = 1.60007e-07
DILUPBiCG:  Solving for omega, Initial residual = 0.00127279, Final residual = 6.69571e-07, No Iterations 1
DILUPBiCG:  Solving for k, Initial residual = 0.00309134, Final residual = 6.7668e-07, No Iterations 2
bounding k, min: 0 max: 0.000520268 average: 0.000143958
ExecutionTime = 17.74 s  ClockTime = 18 s

Courant Number mean: 0.101137 max: 0.219248
Time = 0.497

GAMG:  Solving for cellDisplacementx, Initial residual = 0, Final residual = 0, No Iterations 0
GAMG:  Solving for cellDisplacementy, Initial residual = 0, Final residual = 0, No Iterations 0
GAMG:  Solving for cellDisplacementz, Initial residual = 0, Final residual = 0, No Iterations 0
PIMPLE: iteration 1
DILUPBiCG:  Solving for Ux, Initial residual = 0.0258048, Final residual = 0.000102594, No Iterations 1
DILUPBiCG:  Solving for Uy, Initial residual = 0.00558223, Final residual = 1.13568e-05, No Iterations 1
DILUPBiCG:  Solving for Uz, Initial residual = 0.00968803, Final residual = 1.4023e-05, No Iterations 1
GAMG:  Solving for p, Initial residual = 0.0915434, Final residual = 0.000720564, No Iterations 3
GAMG:  Solving for p, Initial residual = 0.0111521, Final residual = 8.25372e-05, No Iterations 5
GAMG:  Solving for p, Initial residual = 0.00527937, Final residual = 4.19082e-05, No Iterations 4
time step continuity errors : sum local = 2.10043e-07, global = 8.26885e-08, cumulative = 2.42695e-07
GAMG:  Solving for p, Initial residual = 0.0447, Final residual = 0.0003463, No Iterations 3
GAMG:  Solving for p, Initial residual = 0.00556004, Final residual = 4.95807e-05, No Iterations 7
GAMG:  Solving for p, Initial residual = 0.00270819, Final residual = 2.50654e-05, No Iterations 4
time step continuity errors : sum local = 1.26327e-07, global = 4.90225e-08, cumulative = 2.91718e-07
PIMPLE: iteration 2
DILUPBiCG:  Solving for Ux, Initial residual = 0.00599565, Final residual = 3.88932e-05, No Iterations 1
DILUPBiCG:  Solving for Uy, Initial residual = 0.00132077, Final residual = 2.74432e-06, No Iterations 1
DILUPBiCG:  Solving for Uz, Initial residual = 0.00304701, Final residual = 1.60929e-06, No Iterations 2
GAMG:  Solving for p, Initial residual = 0.0411364, Final residual = 0.000349908, No Iterations 6
GAMG:  Solving for p, Initial residual = 0.0173461, Final residual = 0.000162211, No Iterations 8
GAMG:  Solving for p, Initial residual = 0.00423397, Final residual = 3.76024e-05, No Iterations 18
time step continuity errors : sum local = 1.6564e-07, global = -4.64881e-08, cumulative = 2.4523e-07
GAMG:  Solving for p, Initial residual = 0.0217058, Final residual = 0.000160705, No Iterations 6
GAMG:  Solving for p, Initial residual = 0.00890433, Final residual = 8.60566e-05, No Iterations 6
GAMG:  Solving for p, Initial residual = 0.0019876, Final residual = 1.83333e-05, No Iterations 18
time step continuity errors : sum local = 8.05719e-08, global = -2.27082e-08, cumulative = 2.22522e-07
PIMPLE: iteration 3
DILUPBiCG:  Solving for Ux, Initial residual = 0.000921795, Final residual = 9.39763e-07, No Iterations 2
DILUPBiCG:  Solving for Uy, Initial residual = 0.000227135, Final residual = 8.01476e-06, No Iterations 1
DILUPBiCG:  Solving for Uz, Initial residual = 0.00211161, Final residual = 1.63216e-06, No Iterations 2
GAMG:  Solving for p, Initial residual = 0.0612012, Final residual = 0.000415466, No Iterations 5
GAMG:  Solving for p, Initial residual = 0.0125795, Final residual = 0.000111238, No Iterations 16
GAMG:  Solving for p, Initial residual = 0.00797915, Final residual = 7.10965e-05, No Iterations 8
time step continuity errors : sum local = 3.41507e-07, global = -7.99159e-08, cumulative = 1.42606e-07
GAMG:  Solving for p, Initial residual = 0.00295424, Final residual = 2.29893e-05, No Iterations 8
GAMG:  Solving for p, Initial residual = 0.0015481, Final residual = 1.49617e-05, No Iterations 4
GAMG:  Solving for p, Initial residual = 0.000551267, Final residual = 9.65802e-07, No Iterations 29
time step continuity errors : sum local = 4.57069e-09, global = 1.39065e-09, cumulative = 1.43996e-07
DILUPBiCG:  Solving for omega, Initial residual = 0.00127935, Final residual = 6.65376e-07, No Iterations 1
DILUPBiCG:  Solving for k, Initial residual = 0.00305514, Final residual = 7.02558e-07, No Iterations 2
bounding k, min: 0 max: 0.000514747 average: 0.000143324
ExecutionTime = 20.35 s  ClockTime = 21 s

Courant Number mean: 0.099891 max: 0.216647
Time = 0.498

GAMG:  Solving for cellDisplacementx, Initial residual = 0, Final residual = 0, No Iterations 0
GAMG:  Solving for cellDisplacementy, Initial residual = 0, Final residual = 0, No Iterations 0
GAMG:  Solving for cellDisplacementz, Initial residual = 0, Final residual = 0, No Iterations 0
PIMPLE: iteration 1
DILUPBiCG:  Solving for Ux, Initial residual = 0.0203383, Final residual = 8.1458e-05, No Iterations 1
DILUPBiCG:  Solving for Uy, Initial residual = 0.00444517, Final residual = 9.00128e-06, No Iterations 1
DILUPBiCG:  Solving for Uz, Initial residual = 0.0081812, Final residual = 1.57878e-05, No Iterations 1
GAMG:  Solving for p, Initial residual = 0.0871616, Final residual = 0.000361767, No Iterations 4
GAMG:  Solving for p, Initial residual = 0.012652, Final residual = 0.000123793, No Iterations 8
GAMG:  Solving for p, Initial residual = 0.00603446, Final residual = 5.9798e-05, No Iterations 6
time step continuity errors : sum local = 2.40904e-07, global = -8.30704e-08, cumulative = 6.0926e-08
GAMG:  Solving for p, Initial residual = 0.0431812, Final residual = 0.000182143, No Iterations 4
GAMG:  Solving for p, Initial residual = 0.00642964, Final residual = 5.49006e-05, No Iterations 10
GAMG:  Solving for p, Initial residual = 0.00303876, Final residual = 2.68288e-05, No Iterations 6
time step continuity errors : sum local = 1.08097e-07, global = -3.49675e-08, cumulative = 2.59585e-08
PIMPLE: iteration 2
DILUPBiCG:  Solving for Ux, Initial residual = 0.00454059, Final residual = 3.02871e-05, No Iterations 1
DILUPBiCG:  Solving for Uy, Initial residual = 0.00101293, Final residual = 2.198e-06, No Iterations 1
DILUPBiCG:  Solving for Uz, Initial residual = 0.00307334, Final residual = 1.62949e-06, No Iterations 2
GAMG:  Solving for p, Initial residual = 0.0396849, Final residual = 0.000395165, No Iterations 6
GAMG:  Solving for p, Initial residual = 0.0211267, Final residual = 0.000205908, No Iterations 7
GAMG:  Solving for p, Initial residual = 0.00451958, Final residual = 4.2913e-05, No Iterations 19
time step continuity errors : sum local = 1.50497e-07, global = -4.26508e-08, cumulative = -1.66923e-08
GAMG:  Solving for p, Initial residual = 0.0211541, Final residual = 0.000183492, No Iterations 6
GAMG:  Solving for p, Initial residual = 0.0106373, Final residual = 9.96528e-05, No Iterations 6
GAMG:  Solving for p, Initial residual = 0.00207231, Final residual = 1.92506e-05, No Iterations 20
time step continuity errors : sum local = 6.74963e-08, global = -1.91243e-08, cumulative = -3.58166e-08
PIMPLE: iteration 3
DILUPBiCG:  Solving for Ux, Initial residual = 0.000574115, Final residual = 7.8998e-06, No Iterations 1
DILUPBiCG:  Solving for Uy, Initial residual = 0.000152538, Final residual = 1.78997e-06, No Iterations 1
DILUPBiCG:  Solving for Uz, Initial residual = 0.00203932, Final residual = 1.24334e-06, No Iterations 2
GAMG:  Solving for p, Initial residual = 0.0694907, Final residual = 0.000445667, No Iterations 5
GAMG:  Solving for p, Initial residual = 0.0130295, Final residual = 0.000122464, No Iterations 16
GAMG:  Solving for p, Initial residual = 0.00878023, Final residual = 7.5806e-05, No Iterations 8
time step continuity errors : sum local = 2.87215e-07, global = -6.99776e-08, cumulative = -1.05794e-07
GAMG:  Solving for p, Initial residual = 0.00298772, Final residual = 2.32565e-05, No Iterations 8
GAMG:  Solving for p, Initial residual = 0.00163941, Final residual = 1.56029e-05, No Iterations 4
GAMG:  Solving for p, Initial residual = 0.000583299, Final residual = 9.3014e-07, No Iterations 31
time step continuity errors : sum local = 3.47524e-09, global = 1.0471e-09, cumulative = -1.04747e-07
DILUPBiCG:  Solving for omega, Initial residual = 0.00128242, Final residual = 6.62086e-07, No Iterations 1
DILUPBiCG:  Solving for k, Initial residual = 0.00302061, Final residual = 7.34657e-07, No Iterations 2
bounding k, min: 0 max: 0.000508957 average: 0.000142714
ExecutionTime = 23.14 s  ClockTime = 24 s

Courant Number mean: 0.0989952 max: 0.214771
Time = 0.499

GAMG:  Solving for cellDisplacementx, Initial residual = 0, Final residual = 0, No Iterations 0
GAMG:  Solving for cellDisplacementy, Initial residual = 0, Final residual = 0, No Iterations 0
GAMG:  Solving for cellDisplacementz, Initial residual = 0, Final residual = 0, No Iterations 0
PIMPLE: iteration 1
DILUPBiCG:  Solving for Ux, Initial residual = 0.0148143, Final residual = 5.94782e-05, No Iterations 1
DILUPBiCG:  Solving for Uy, Initial residual = 0.00328627, Final residual = 6.68134e-06, No Iterations 1
DILUPBiCG:  Solving for Uz, Initial residual = 0.00960084, Final residual = 1.83813e-05, No Iterations 1
GAMG:  Solving for p, Initial residual = 0.0835712, Final residual = 0.000591231, No Iterations 4
GAMG:  Solving for p, Initial residual = 0.0199841, Final residual = 0.00019481, No Iterations 8
GAMG:  Solving for p, Initial residual = 0.00618096, Final residual = 5.97554e-05, No Iterations 14
time step continuity errors : sum local = 1.76884e-07, global = -5.26216e-08, cumulative = -1.57369e-07
GAMG:  Solving for p, Initial residual = 0.0425999, Final residual = 0.000278021, No Iterations 4
GAMG:  Solving for p, Initial residual = 0.0100439, Final residual = 9.58733e-05, No Iterations 8
GAMG:  Solving for p, Initial residual = 0.00296291, Final residual = 2.95291e-05, No Iterations 14
time step continuity errors : sum local = 8.71671e-08, global = -2.57868e-08, cumulative = -1.83155e-07
PIMPLE: iteration 2
DILUPBiCG:  Solving for Ux, Initial residual = 0.00303815, Final residual = 2.29439e-05, No Iterations 1
DILUPBiCG:  Solving for Uy, Initial residual = 0.000694178, Final residual = 1.79873e-06, No Iterations 1
DILUPBiCG:  Solving for Uz, Initial residual = 0.00317186, Final residual = 0.000120719, No Iterations 1
GAMG:  Solving for p, Initial residual = 0.0392383, Final residual = 0.000353928, No Iterations 8
GAMG:  Solving for p, Initial residual = 0.0275189, Final residual = 0.000220956, No Iterations 5
GAMG:  Solving for p, Initial residual = 0.00462804, Final residual = 4.02739e-05, No Iterations 21
time step continuity errors : sum local = 1.03727e-07, global = -2.9516e-08, cumulative = -2.12671e-07
GAMG:  Solving for p, Initial residual = 0.0210125, Final residual = 0.000167211, No Iterations 8
GAMG:  Solving for p, Initial residual = 0.0132668, Final residual = 0.000102947, No Iterations 5
GAMG:  Solving for p, Initial residual = 0.00225315, Final residual = 2.10103e-05, No Iterations 19
time step continuity errors : sum local = 5.4064e-08, global = -1.51692e-08, cumulative = -2.27841e-07
PIMPLE: iteration 3
DILUPBiCG:  Solving for Ux, Initial residual = 0.000227035, Final residual = 2.13273e-06, No Iterations 1
DILUPBiCG:  Solving for Uy, Initial residual = 7.74341e-05, Final residual = 4.7488e-07, No Iterations 1
DILUPBiCG:  Solving for Uz, Initial residual = 0.00147738, Final residual = 7.41773e-07, No Iterations 2
GAMG:  Solving for p, Initial residual = 0.0835493, Final residual = 0.000764391, No Iterations 3
GAMG:  Solving for p, Initial residual = 0.0136276, Final residual = 0.000125106, No Iterations 20
GAMG:  Solving for p, Initial residual = 0.0136296, Final residual = 0.000130289, No Iterations 4
time step continuity errors : sum local = 3.54904e-07, global = -5.79062e-08, cumulative = -2.85747e-07
GAMG:  Solving for p, Initial residual = 0.00359162, Final residual = 3.15897e-05, No Iterations 8
GAMG:  Solving for p, Initial residual = 0.0019258, Final residual = 1.87294e-05, No Iterations 4
GAMG:  Solving for p, Initial residual = 0.000646483, Final residual = 8.78309e-07, No Iterations 29
time step continuity errors : sum local = 2.35019e-09, global = 7.82338e-10, cumulative = -2.84964e-07
DILUPBiCG:  Solving for omega, Initial residual = 0.00128192, Final residual = 6.59711e-07, No Iterations 1
DILUPBiCG:  Solving for k, Initial residual = 0.0029876, Final residual = 7.72179e-07, No Iterations 2
bounding k, min: 0 max: 0.000502921 average: 0.000142129
ExecutionTime = 25.93 s  ClockTime = 26 s

Courant Number mean: 0.0984513 max: 0.213629
Time = 0.5

GAMG:  Solving for cellDisplacementx, Initial residual = 0, Final residual = 0, No Iterations 0
GAMG:  Solving for cellDisplacementy, Initial residual = 0, Final residual = 0, No Iterations 0
GAMG:  Solving for cellDisplacementz, Initial residual = 0, Final residual = 0, No Iterations 0
PIMPLE: iteration 1
DILUPBiCG:  Solving for Ux, Initial residual = 0.0091686, Final residual = 3.73654e-05, No Iterations 1
DILUPBiCG:  Solving for Uy, Initial residual = 0.00211111, Final residual = 4.32119e-06, No Iterations 1
DILUPBiCG:  Solving for Uz, Initial residual = 0.00942894, Final residual = 2.05293e-05, No Iterations 1
GAMG:  Solving for p, Initial residual = 0.0812209, Final residual = 0.000692714, No Iterations 6
GAMG:  Solving for p, Initial residual = 0.0461481, Final residual = 0.00036688, No Iterations 4
GAMG:  Solving for p, Initial residual = 0.00832183, Final residual = 7.89937e-05, No Iterations 19
time step continuity errors : sum local = 1.47097e-07, global = -4.1494e-08, cumulative = -3.26458e-07
GAMG:  Solving for p, Initial residual = 0.0438184, Final residual = 0.000400967, No Iterations 5
GAMG:  Solving for p, Initial residual = 0.0223027, Final residual = 0.000170097, No Iterations 4
GAMG:  Solving for p, Initial residual = 0.00416655, Final residual = 3.44295e-05, No Iterations 12
time step continuity errors : sum local = 6.34036e-08, global = -1.83995e-08, cumulative = -3.44858e-07
PIMPLE: iteration 2
DILUPBiCG:  Solving for Ux, Initial residual = 0.0015164, Final residual = 2.83817e-05, No Iterations 1
DILUPBiCG:  Solving for Uy, Initial residual = 0.000376105, Final residual = 3.96382e-06, No Iterations 1
DILUPBiCG:  Solving for Uz, Initial residual = 0.0030667, Final residual = 0.000254969, No Iterations 1
GAMG:  Solving for p, Initial residual = 0.0413352, Final residual = 0.00039395, No Iterations 11
GAMG:  Solving for p, Initial residual = 0.0343839, Final residual = 0.000296055, No Iterations 6
GAMG:  Solving for p, Initial residual = 0.00607903, Final residual = 6.06519e-05, No Iterations 20
time step continuity errors : sum local = 1.00771e-07, global = -2.86065e-08, cumulative = -3.73464e-07
GAMG:  Solving for p, Initial residual = 0.0226934, Final residual = 0.000206687, No Iterations 9
GAMG:  Solving for p, Initial residual = 0.0159095, Final residual = 0.000127671, No Iterations 8
GAMG:  Solving for p, Initial residual = 0.00313168, Final residual = 3.12618e-05, No Iterations 18
time step continuity errors : sum local = 5.17198e-08, global = -1.44577e-08, cumulative = -3.87922e-07
PIMPLE: iteration 3
DILUPBiCG:  Solving for Ux, Initial residual = 0.000191917, Final residual = 2.00372e-06, No Iterations 1
DILUPBiCG:  Solving for Uy, Initial residual = 7.14594e-05, Final residual = 1.05343e-06, No Iterations 1
DILUPBiCG:  Solving for Uz, Initial residual = 0.00122251, Final residual = 8.2769e-06, No Iterations 1
GAMG:  Solving for p, Initial residual = 0.114824, Final residual = 0.000998521, No Iterations 3
GAMG:  Solving for p, Initial residual = 0.015682, Final residual = 0.000152741, No Iterations 20
GAMG:  Solving for p, Initial residual = 0.0171559, Final residual = 0.000168964, No Iterations 4
time step continuity errors : sum local = 2.79139e-07, global = -4.42138e-08, cumulative = -4.32136e-07
GAMG:  Solving for p, Initial residual = 0.00450825, Final residual = 3.57701e-05, No Iterations 8
GAMG:  Solving for p, Initial residual = 0.00227938, Final residual = 1.77678e-05, No Iterations 6
GAMG:  Solving for p, Initial residual = 0.000760785, Final residual = 9.52246e-07, No Iterations 22
time step continuity errors : sum local = 1.53875e-09, global = -4.06129e-10, cumulative = -4.32542e-07
DILUPBiCG:  Solving for omega, Initial residual = 0.00127789, Final residual = 6.58331e-07, No Iterations 1
DILUPBiCG:  Solving for k, Initial residual = 0.00295606, Final residual = 8.12655e-07, No Iterations 2
bounding k, min: 0 max: 0.000496557 average: 0.000141567
ExecutionTime = 28.73 s  ClockTime = 29 s

End

