/*---------------------------------------------------------------------------*\
| =========                 |                                                 |
| \\      /  F ield         | OpenFOAM: The Open Source CFD Toolbox           |
|  \\    /   O peration     | Version:  2.3.1                                 |
|   \\  /    A nd           | Web:      www.OpenFOAM.org                      |
|    \\/     M anipulation  |                                                 |
\*---------------------------------------------------------------------------*/
Build  : 2.3.1-262087cdf8db
Exec   : pimpleDyMFoam
Date   : Jun 04 2023
Time   : 17:00:42
Host   : "jcosson-VirtualBox"
PID    : 5117
Case   : /home/jcosson/workspace/henersj_shootingdata/calcs/moderate_deformed/primal/10_intervals_04-06-23/sweep9/interval9
nProcs : 1
sigFpe : Enabling floating point exception trapping (FOAM_SIGFPE).
fileModificationChecking : Monitoring run-time modified files using timeStampMaster
allowSystemOperations : Allowing user-supplied system call operations

// * * * * * * * * * * * * * * * * * * * * * * * * * * * * * * * * * * * * * //
Create time

Create mesh for time = 0.48

Selecting dynamicFvMesh dynamicMotionSolverFvMesh
Selecting motion solver: displacementLaplacian
Selecting motion diffusion: quadratic
Selecting motion diffusion: quadratic
Selecting motion diffusion: inverseDistance

PIMPLE: no residual control data found. Calculations will employ 3 corrector loops

Reading field p

Reading field U

Reading/calculating face flux field phi

Selecting incompressible transport model Newtonian
Selecting turbulence model type RASModel
Selecting RAS turbulence model kOmegaSST
bounding k, min: 0 max: 0.000671258 average: 0.000157064
kOmegaSSTCoeffs
{
    alphaK1         0.85034;
    alphaK2         1;
    alphaOmega1     0.5;
    alphaOmega2     0.85616;
    gamma1          0.5532;
    gamma2          0.4403;
    beta1           0.075;
    beta2           0.0828;
    betaStar        0.09;
    a1              0.31;
    c1              10;
    Cmu             0.09;
    b1              1;
    F3              false;
}

Reading/calculating face velocity Uf

No finite volume options present

Courant Number mean: 0.160915 max: 0.353867

Starting time loop

Courant Number mean: 0.160915 max: 0.353867
Time = 0.481

GAMG:  Solving for cellDisplacementx, Initial residual = 0, Final residual = 0, No Iterations 0
GAMG:  Solving for cellDisplacementy, Initial residual = 0, Final residual = 0, No Iterations 0
GAMG:  Solving for cellDisplacementz, Initial residual = 0, Final residual = 0, No Iterations 0
PIMPLE: iteration 1
DILUPBiCG:  Solving for Ux, Initial residual = 0.0642851, Final residual = 0.000258073, No Iterations 1
DILUPBiCG:  Solving for Uy, Initial residual = 0.0113758, Final residual = 2.50073e-05, No Iterations 1
DILUPBiCG:  Solving for Uz, Initial residual = 0.0106513, Final residual = 1.86708e-05, No Iterations 1
GAMG:  Solving for p, Initial residual = 0.119663, Final residual = 0.00114733, No Iterations 4
GAMG:  Solving for p, Initial residual = 0.0143561, Final residual = 0.000128347, No Iterations 20
GAMG:  Solving for p, Initial residual = 0.00669556, Final residual = 6.1035e-05, No Iterations 10
time step continuity errors : sum local = 9.24885e-07, global = 2.49576e-07, cumulative = 2.49576e-07
GAMG:  Solving for p, Initial residual = 0.0521623, Final residual = 0.000446231, No Iterations 4
GAMG:  Solving for p, Initial residual = 0.00721455, Final residual = 6.2198e-05, No Iterations 18
GAMG:  Solving for p, Initial residual = 0.00340165, Final residual = 3.0797e-05, No Iterations 10
time step continuity errors : sum local = 4.679e-07, global = 1.25727e-07, cumulative = 3.75303e-07
PIMPLE: iteration 2
DILUPBiCG:  Solving for Ux, Initial residual = 0.0176353, Final residual = 0.000107828, No Iterations 1
DILUPBiCG:  Solving for Uy, Initial residual = 0.00328812, Final residual = 7.15542e-06, No Iterations 1
DILUPBiCG:  Solving for Uz, Initial residual = 0.00314866, Final residual = 1.14154e-05, No Iterations 1
GAMG:  Solving for p, Initial residual = 0.0518111, Final residual = 0.000475756, No Iterations 4
GAMG:  Solving for p, Initial residual = 0.00893382, Final residual = 8.34363e-05, No Iterations 16
GAMG:  Solving for p, Initial residual = 0.00391308, Final residual = 3.55857e-05, No Iterations 10
time step continuity errors : sum local = 4.66262e-07, global = -1.22143e-07, cumulative = 2.53159e-07
GAMG:  Solving for p, Initial residual = 0.026814, Final residual = 0.000213948, No Iterations 4
GAMG:  Solving for p, Initial residual = 0.00450074, Final residual = 3.97727e-05, No Iterations 14
GAMG:  Solving for p, Initial residual = 0.00185296, Final residual = 1.75055e-05, No Iterations 10
time step continuity errors : sum local = 2.304e-07, global = -5.97164e-08, cumulative = 1.93443e-07
PIMPLE: iteration 3
DILUPBiCG:  Solving for Ux, Initial residual = 0.00406339, Final residual = 2.89705e-06, No Iterations 2
DILUPBiCG:  Solving for Uy, Initial residual = 0.000767678, Final residual = 5.54835e-06, No Iterations 1
DILUPBiCG:  Solving for Uz, Initial residual = 0.00655795, Final residual = 3.89971e-06, No Iterations 2
GAMG:  Solving for p, Initial residual = 0.0415578, Final residual = 0.000359891, No Iterations 5
GAMG:  Solving for p, Initial residual = 0.00947767, Final residual = 7.74503e-05, No Iterations 10
GAMG:  Solving for p, Initial residual = 0.00447199, Final residual = 4.29062e-05, No Iterations 8
time step continuity errors : sum local = 6.31073e-07, global = -1.38584e-07, cumulative = 5.48585e-08
GAMG:  Solving for p, Initial residual = 0.00236595, Final residual = 2.28472e-05, No Iterations 14
GAMG:  Solving for p, Initial residual = 0.00129323, Final residual = 1.16139e-05, No Iterations 4
GAMG:  Solving for p, Initial residual = 0.00053072, Final residual = 9.11303e-07, No Iterations 30
time step continuity errors : sum local = 1.33085e-08, global = 3.96095e-09, cumulative = 5.88195e-08
DILUPBiCG:  Solving for omega, Initial residual = 0.000824851, Final residual = 6.89376e-07, No Iterations 1
DILUPBiCG:  Solving for k, Initial residual = 0.00389647, Final residual = 1.03838e-06, No Iterations 2
bounding k, min: 0 max: 0.000662568 average: 0.000156048
ExecutionTime = 3.98 s  ClockTime = 4 s

Courant Number mean: 0.155548 max: 0.341513
Time = 0.482

GAMG:  Solving for cellDisplacementx, Initial residual = 0, Final residual = 0, No Iterations 0
GAMG:  Solving for cellDisplacementy, Initial residual = 0, Final residual = 0, No Iterations 0
GAMG:  Solving for cellDisplacementz, Initial residual = 0, Final residual = 0, No Iterations 0
PIMPLE: iteration 1
DILUPBiCG:  Solving for Ux, Initial residual = 0.0646361, Final residual = 0.000258793, No Iterations 1
DILUPBiCG:  Solving for Uy, Initial residual = 0.0115586, Final residual = 2.51836e-05, No Iterations 1
DILUPBiCG:  Solving for Uz, Initial residual = 0.00916607, Final residual = 1.60525e-05, No Iterations 1
GAMG:  Solving for p, Initial residual = 0.110786, Final residual = 0.000754554, No Iterations 6
GAMG:  Solving for p, Initial residual = 0.0123272, Final residual = 0.00012008, No Iterations 18
GAMG:  Solving for p, Initial residual = 0.00569166, Final residual = 4.81052e-05, No Iterations 12
time step continuity errors : sum local = 7.18129e-07, global = 2.16485e-07, cumulative = 2.75305e-07
GAMG:  Solving for p, Initial residual = 0.0483558, Final residual = 0.000432889, No Iterations 4
GAMG:  Solving for p, Initial residual = 0.00624758, Final residual = 6.1085e-05, No Iterations 18
GAMG:  Solving for p, Initial residual = 0.00302815, Final residual = 3.00479e-05, No Iterations 10
time step continuity errors : sum local = 4.4987e-07, global = 1.21865e-07, cumulative = 3.97169e-07
PIMPLE: iteration 2
DILUPBiCG:  Solving for Ux, Initial residual = 0.0176184, Final residual = 0.000108269, No Iterations 1
DILUPBiCG:  Solving for Uy, Initial residual = 0.00331638, Final residual = 7.16109e-06, No Iterations 1
DILUPBiCG:  Solving for Uz, Initial residual = 0.00304753, Final residual = 1.11649e-05, No Iterations 1
GAMG:  Solving for p, Initial residual = 0.0473924, Final residual = 0.000298563, No Iterations 6
GAMG:  Solving for p, Initial residual = 0.00793713, Final residual = 7.44674e-05, No Iterations 16
GAMG:  Solving for p, Initial residual = 0.0031998, Final residual = 3.095e-05, No Iterations 10
time step continuity errors : sum local = 3.99749e-07, global = -1.07986e-07, cumulative = 2.89183e-07
GAMG:  Solving for p, Initial residual = 0.0245606, Final residual = 0.00021396, No Iterations 4
GAMG:  Solving for p, Initial residual = 0.00397616, Final residual = 3.41871e-05, No Iterations 16
GAMG:  Solving for p, Initial residual = 0.00160916, Final residual = 1.48248e-05, No Iterations 10
time step continuity errors : sum local = 1.92404e-07, global = -5.03931e-08, cumulative = 2.3879e-07
PIMPLE: iteration 3
DILUPBiCG:  Solving for Ux, Initial residual = 0.00402526, Final residual = 2.97246e-06, No Iterations 2
DILUPBiCG:  Solving for Uy, Initial residual = 0.000766847, Final residual = 5.43753e-06, No Iterations 1
DILUPBiCG:  Solving for Uz, Initial residual = 0.00644868, Final residual = 3.87026e-06, No Iterations 2
GAMG:  Solving for p, Initial residual = 0.0413002, Final residual = 0.000352448, No Iterations 5
GAMG:  Solving for p, Initial residual = 0.00934077, Final residual = 8.65954e-05, No Iterations 12
GAMG:  Solving for p, Initial residual = 0.00450018, Final residual = 4.25487e-05, No Iterations 10
time step continuity errors : sum local = 6.17926e-07, global = -1.60245e-07, cumulative = 7.85446e-08
GAMG:  Solving for p, Initial residual = 0.00233736, Final residual = 2.17823e-05, No Iterations 12
GAMG:  Solving for p, Initial residual = 0.00127561, Final residual = 1.26754e-05, No Iterations 4
GAMG:  Solving for p, Initial residual = 0.000521517, Final residual = 9.06622e-07, No Iterations 32
time step continuity errors : sum local = 1.30567e-08, global = 3.86255e-09, cumulative = 8.24072e-08
DILUPBiCG:  Solving for omega, Initial residual = 0.000865419, Final residual = 6.97791e-07, No Iterations 1
DILUPBiCG:  Solving for k, Initial residual = 0.00383553, Final residual = 9.43806e-07, No Iterations 2
bounding k, min: 0 max: 0.000653615 average: 0.000155048
ExecutionTime = 7.11 s  ClockTime = 7 s

Courant Number mean: 0.150314 max: 0.329448
Time = 0.483

GAMG:  Solving for cellDisplacementx, Initial residual = 0, Final residual = 0, No Iterations 0
GAMG:  Solving for cellDisplacementy, Initial residual = 0, Final residual = 0, No Iterations 0
GAMG:  Solving for cellDisplacementz, Initial residual = 0, Final residual = 0, No Iterations 0
PIMPLE: iteration 1
DILUPBiCG:  Solving for Ux, Initial residual = 0.0647087, Final residual = 0.000258231, No Iterations 1
DILUPBiCG:  Solving for Uy, Initial residual = 0.011695, Final residual = 2.53012e-05, No Iterations 1
DILUPBiCG:  Solving for Uz, Initial residual = 0.00912829, Final residual = 1.51616e-05, No Iterations 1
GAMG:  Solving for p, Initial residual = 0.110119, Final residual = 0.00107156, No Iterations 4
GAMG:  Solving for p, Initial residual = 0.0124047, Final residual = 0.000122852, No Iterations 20
GAMG:  Solving for p, Initial residual = 0.00603952, Final residual = 5.85618e-05, No Iterations 10
time step continuity errors : sum local = 8.57422e-07, global = 2.28666e-07, cumulative = 3.11073e-07
GAMG:  Solving for p, Initial residual = 0.0482545, Final residual = 0.000420814, No Iterations 4
GAMG:  Solving for p, Initial residual = 0.00628206, Final residual = 5.9933e-05, No Iterations 18
GAMG:  Solving for p, Initial residual = 0.00304711, Final residual = 2.97161e-05, No Iterations 10
time step continuity errors : sum local = 4.36417e-07, global = 1.16468e-07, cumulative = 4.2754e-07
PIMPLE: iteration 2
DILUPBiCG:  Solving for Ux, Initial residual = 0.0175196, Final residual = 0.000108022, No Iterations 1
DILUPBiCG:  Solving for Uy, Initial residual = 0.00333598, Final residual = 7.17036e-06, No Iterations 1
DILUPBiCG:  Solving for Uz, Initial residual = 0.00300721, Final residual = 1.09465e-05, No Iterations 1
GAMG:  Solving for p, Initial residual = 0.0471964, Final residual = 0.000297958, No Iterations 6
GAMG:  Solving for p, Initial residual = 0.00797652, Final residual = 7.38025e-05, No Iterations 16
GAMG:  Solving for p, Initial residual = 0.00318597, Final residual = 3.0941e-05, No Iterations 10
time step continuity errors : sum local = 3.92536e-07, global = -1.06105e-07, cumulative = 3.21435e-07
GAMG:  Solving for p, Initial residual = 0.0244735, Final residual = 0.000215931, No Iterations 4
GAMG:  Solving for p, Initial residual = 0.0039943, Final residual = 3.41829e-05, No Iterations 16
GAMG:  Solving for p, Initial residual = 0.00161785, Final residual = 1.4868e-05, No Iterations 10
time step continuity errors : sum local = 1.8952e-07, global = -4.9952e-08, cumulative = 2.71483e-07
PIMPLE: iteration 3
DILUPBiCG:  Solving for Ux, Initial residual = 0.00396522, Final residual = 3.03657e-06, No Iterations 2
DILUPBiCG:  Solving for Uy, Initial residual = 0.000769178, Final residual = 5.33327e-06, No Iterations 1
DILUPBiCG:  Solving for Uz, Initial residual = 0.00619957, Final residual = 3.93091e-06, No Iterations 2
GAMG:  Solving for p, Initial residual = 0.0416367, Final residual = 0.000346462, No Iterations 5
GAMG:  Solving for p, Initial residual = 0.00936508, Final residual = 9.10927e-05, No Iterations 12
GAMG:  Solving for p, Initial residual = 0.00455811, Final residual = 3.73048e-05, No Iterations 12
time step continuity errors : sum local = 5.32169e-07, global = -1.55905e-07, cumulative = 1.15578e-07
GAMG:  Solving for p, Initial residual = 0.0023468, Final residual = 2.34351e-05, No Iterations 12
GAMG:  Solving for p, Initial residual = 0.00127801, Final residual = 1.15318e-05, No Iterations 6
GAMG:  Solving for p, Initial residual = 0.000524587, Final residual = 8.82753e-07, No Iterations 32
time step continuity errors : sum local = 1.24809e-08, global = 3.69976e-09, cumulative = 1.19278e-07
DILUPBiCG:  Solving for omega, Initial residual = 0.000906048, Final residual = 7.04619e-07, No Iterations 1
DILUPBiCG:  Solving for k, Initial residual = 0.00377297, Final residual = 8.52311e-07, No Iterations 2
bounding k, min: 0 max: 0.000646224 average: 0.000154068
ExecutionTime = 10.1 s  ClockTime = 10 s

Courant Number mean: 0.145232 max: 0.317722
Time = 0.484

GAMG:  Solving for cellDisplacementx, Initial residual = 0, Final residual = 0, No Iterations 0
GAMG:  Solving for cellDisplacementy, Initial residual = 0, Final residual = 0, No Iterations 0
GAMG:  Solving for cellDisplacementz, Initial residual = 0, Final residual = 0, No Iterations 0
PIMPLE: iteration 1
DILUPBiCG:  Solving for Ux, Initial residual = 0.0644218, Final residual = 0.00025647, No Iterations 1
DILUPBiCG:  Solving for Uy, Initial residual = 0.0118046, Final residual = 2.53824e-05, No Iterations 1
DILUPBiCG:  Solving for Uz, Initial residual = 0.00914238, Final residual = 1.43931e-05, No Iterations 1
GAMG:  Solving for p, Initial residual = 0.109456, Final residual = 0.00103148, No Iterations 4
GAMG:  Solving for p, Initial residual = 0.0123819, Final residual = 0.000119509, No Iterations 20
GAMG:  Solving for p, Initial residual = 0.0060441, Final residual = 5.58086e-05, No Iterations 10
time step continuity errors : sum local = 7.98149e-07, global = 2.15318e-07, cumulative = 3.34596e-07
GAMG:  Solving for p, Initial residual = 0.0480708, Final residual = 0.000407533, No Iterations 4
GAMG:  Solving for p, Initial residual = 0.0062391, Final residual = 5.85291e-05, No Iterations 18
GAMG:  Solving for p, Initial residual = 0.00304405, Final residual = 2.84669e-05, No Iterations 10
time step continuity errors : sum local = 4.08526e-07, global = 1.1e-07, cumulative = 4.44596e-07
PIMPLE: iteration 2
DILUPBiCG:  Solving for Ux, Initial residual = 0.0173378, Final residual = 0.000107199, No Iterations 1
DILUPBiCG:  Solving for Uy, Initial residual = 0.0033359, Final residual = 7.1268e-06, No Iterations 1
DILUPBiCG:  Solving for Uz, Initial residual = 0.00293628, Final residual = 1.06617e-05, No Iterations 1
GAMG:  Solving for p, Initial residual = 0.0469228, Final residual = 0.000298999, No Iterations 6
GAMG:  Solving for p, Initial residual = 0.00812448, Final residual = 7.47826e-05, No Iterations 16
GAMG:  Solving for p, Initial residual = 0.00321355, Final residual = 3.10829e-05, No Iterations 10
time step continuity errors : sum local = 3.85702e-07, global = -1.01722e-07, cumulative = 3.42875e-07
GAMG:  Solving for p, Initial residual = 0.0243758, Final residual = 0.000216381, No Iterations 4
GAMG:  Solving for p, Initial residual = 0.00409072, Final residual = 4.07078e-05, No Iterations 14
GAMG:  Solving for p, Initial residual = 0.00161006, Final residual = 1.50183e-05, No Iterations 12
time step continuity errors : sum local = 1.87284e-07, global = -5.26138e-08, cumulative = 2.90261e-07
PIMPLE: iteration 3
DILUPBiCG:  Solving for Ux, Initial residual = 0.00389252, Final residual = 3.07415e-06, No Iterations 2
DILUPBiCG:  Solving for Uy, Initial residual = 0.000761391, Final residual = 5.22982e-06, No Iterations 1
DILUPBiCG:  Solving for Uz, Initial residual = 0.00611674, Final residual = 3.69274e-06, No Iterations 2
GAMG:  Solving for p, Initial residual = 0.0419897, Final residual = 0.000337994, No Iterations 5
GAMG:  Solving for p, Initial residual = 0.00942362, Final residual = 8.2668e-05, No Iterations 14
GAMG:  Solving for p, Initial residual = 0.00465155, Final residual = 4.1552e-05, No Iterations 10
time step continuity errors : sum local = 5.79574e-07, global = -1.50737e-07, cumulative = 1.39524e-07
GAMG:  Solving for p, Initial residual = 0.00234956, Final residual = 2.05799e-05, No Iterations 12
GAMG:  Solving for p, Initial residual = 0.00128032, Final residual = 1.24408e-05, No Iterations 4
GAMG:  Solving for p, Initial residual = 0.000521955, Final residual = 9.7388e-07, No Iterations 30
time step continuity errors : sum local = 1.346e-08, global = 4.03514e-09, cumulative = 1.43559e-07
DILUPBiCG:  Solving for omega, Initial residual = 0.00094591, Final residual = 7.09452e-07, No Iterations 1
DILUPBiCG:  Solving for k, Initial residual = 0.00370863, Final residual = 7.70816e-07, No Iterations 2
bounding k, min: 0 max: 0.000637829 average: 0.00015311
ExecutionTime = 13.01 s  ClockTime = 13 s

Courant Number mean: 0.140324 max: 0.306382
Time = 0.485

GAMG:  Solving for cellDisplacementx, Initial residual = 0, Final residual = 0, No Iterations 0
GAMG:  Solving for cellDisplacementy, Initial residual = 0, Final residual = 0, No Iterations 0
GAMG:  Solving for cellDisplacementz, Initial residual = 0, Final residual = 0, No Iterations 0
PIMPLE: iteration 1
DILUPBiCG:  Solving for Ux, Initial residual = 0.0638562, Final residual = 0.000253378, No Iterations 1
DILUPBiCG:  Solving for Uy, Initial residual = 0.0118227, Final residual = 2.52439e-05, No Iterations 1
DILUPBiCG:  Solving for Uz, Initial residual = 0.0093314, Final residual = 1.36133e-05, No Iterations 1
GAMG:  Solving for p, Initial residual = 0.108728, Final residual = 0.000987367, No Iterations 4
GAMG:  Solving for p, Initial residual = 0.0124623, Final residual = 0.000117277, No Iterations 20
GAMG:  Solving for p, Initial residual = 0.00610993, Final residual = 5.50565e-05, No Iterations 10
time step continuity errors : sum local = 7.64869e-07, global = 2.00485e-07, cumulative = 3.44045e-07
GAMG:  Solving for p, Initial residual = 0.0479899, Final residual = 0.000392782, No Iterations 4
GAMG:  Solving for p, Initial residual = 0.00629014, Final residual = 5.75949e-05, No Iterations 18
GAMG:  Solving for p, Initial residual = 0.00307473, Final residual = 2.82899e-05, No Iterations 10
time step continuity errors : sum local = 3.94396e-07, global = 1.0393e-07, cumulative = 4.47975e-07
PIMPLE: iteration 2
DILUPBiCG:  Solving for Ux, Initial residual = 0.0170569, Final residual = 0.000105766, No Iterations 1
DILUPBiCG:  Solving for Uy, Initial residual = 0.00332216, Final residual = 7.0591e-06, No Iterations 1
DILUPBiCG:  Solving for Uz, Initial residual = 0.00290732, Final residual = 1.03926e-05, No Iterations 1
GAMG:  Solving for p, Initial residual = 0.0467421, Final residual = 0.000297982, No Iterations 6
GAMG:  Solving for p, Initial residual = 0.00816616, Final residual = 7.34024e-05, No Iterations 16
GAMG:  Solving for p, Initial residual = 0.00320212, Final residual = 3.08766e-05, No Iterations 10
time step continuity errors : sum local = 3.72714e-07, global = -9.87095e-08, cumulative = 3.49265e-07
GAMG:  Solving for p, Initial residual = 0.0242875, Final residual = 0.00021919, No Iterations 4
GAMG:  Solving for p, Initial residual = 0.00410814, Final residual = 4.03517e-05, No Iterations 14
GAMG:  Solving for p, Initial residual = 0.00162143, Final residual = 1.49229e-05, No Iterations 12
time step continuity errors : sum local = 1.81008e-07, global = -5.18612e-08, cumulative = 2.97404e-07
PIMPLE: iteration 3
DILUPBiCG:  Solving for Ux, Initial residual = 0.00378603, Final residual = 3.11641e-06, No Iterations 2
DILUPBiCG:  Solving for Uy, Initial residual = 0.000757499, Final residual = 5.15027e-06, No Iterations 1
DILUPBiCG:  Solving for Uz, Initial residual = 0.00577059, Final residual = 3.82758e-06, No Iterations 2
GAMG:  Solving for p, Initial residual = 0.0424343, Final residual = 0.000332455, No Iterations 5
GAMG:  Solving for p, Initial residual = 0.00948951, Final residual = 8.42403e-05, No Iterations 14
GAMG:  Solving for p, Initial residual = 0.0047253, Final residual = 4.24681e-05, No Iterations 10
time step continuity errors : sum local = 5.75993e-07, global = -1.50573e-07, cumulative = 1.46831e-07
GAMG:  Solving for p, Initial residual = 0.00236288, Final residual = 2.25676e-05, No Iterations 10
GAMG:  Solving for p, Initial residual = 0.00128745, Final residual = 1.18645e-05, No Iterations 6
GAMG:  Solving for p, Initial residual = 0.000528235, Final residual = 8.86178e-07, No Iterations 32
time step continuity errors : sum local = 1.19038e-08, global = 3.53793e-09, cumulative = 1.50369e-07
DILUPBiCG:  Solving for omega, Initial residual = 0.000984858, Final residual = 7.12317e-07, No Iterations 1
DILUPBiCG:  Solving for k, Initial residual = 0.00364443, Final residual = 7.08132e-07, No Iterations 2
bounding k, min: 0 max: 0.000628515 average: 0.000152177
ExecutionTime = 15.97 s  ClockTime = 16 s

Courant Number mean: 0.135608 max: 0.295467
Time = 0.486

GAMG:  Solving for cellDisplacementx, Initial residual = 0, Final residual = 0, No Iterations 0
GAMG:  Solving for cellDisplacementy, Initial residual = 0, Final residual = 0, No Iterations 0
GAMG:  Solving for cellDisplacementz, Initial residual = 0, Final residual = 0, No Iterations 0
PIMPLE: iteration 1
DILUPBiCG:  Solving for Ux, Initial residual = 0.0628177, Final residual = 0.000248884, No Iterations 1
DILUPBiCG:  Solving for Uy, Initial residual = 0.0118229, Final residual = 2.5119e-05, No Iterations 1
DILUPBiCG:  Solving for Uz, Initial residual = 0.00933119, Final residual = 1.29892e-05, No Iterations 1
GAMG:  Solving for p, Initial residual = 0.108118, Final residual = 0.000945489, No Iterations 4
GAMG:  Solving for p, Initial residual = 0.01244, Final residual = 0.00011399, No Iterations 20
GAMG:  Solving for p, Initial residual = 0.00613541, Final residual = 5.10655e-05, No Iterations 10
time step continuity errors : sum local = 6.86274e-07, global = 1.83013e-07, cumulative = 3.33382e-07
GAMG:  Solving for p, Initial residual = 0.0478103, Final residual = 0.000377937, No Iterations 4
GAMG:  Solving for p, Initial residual = 0.00623924, Final residual = 5.63599e-05, No Iterations 18
GAMG:  Solving for p, Initial residual = 0.00308766, Final residual = 2.65934e-05, No Iterations 10
time step continuity errors : sum local = 3.58836e-07, global = 9.58787e-08, cumulative = 4.29261e-07
PIMPLE: iteration 2
DILUPBiCG:  Solving for Ux, Initial residual = 0.0166882, Final residual = 0.000103621, No Iterations 1
DILUPBiCG:  Solving for Uy, Initial residual = 0.00328446, Final residual = 6.93967e-06, No Iterations 1
DILUPBiCG:  Solving for Uz, Initial residual = 0.00285866, Final residual = 1.00547e-05, No Iterations 1
GAMG:  Solving for p, Initial residual = 0.0464662, Final residual = 0.000299963, No Iterations 6
GAMG:  Solving for p, Initial residual = 0.00838835, Final residual = 7.55139e-05, No Iterations 16
GAMG:  Solving for p, Initial residual = 0.00327057, Final residual = 3.10794e-05, No Iterations 10
time step continuity errors : sum local = 3.63343e-07, global = -9.34597e-08, cumulative = 3.35801e-07
GAMG:  Solving for p, Initial residual = 0.0242146, Final residual = 0.000219757, No Iterations 4
GAMG:  Solving for p, Initial residual = 0.00425718, Final residual = 4.1621e-05, No Iterations 14
GAMG:  Solving for p, Initial residual = 0.00164375, Final residual = 1.49774e-05, No Iterations 12
time step continuity errors : sum local = 1.75916e-07, global = -4.99382e-08, cumulative = 2.85863e-07
PIMPLE: iteration 3
DILUPBiCG:  Solving for Ux, Initial residual = 0.00367561, Final residual = 3.10315e-06, No Iterations 2
DILUPBiCG:  Solving for Uy, Initial residual = 0.000739623, Final residual = 5.08058e-06, No Iterations 1
DILUPBiCG:  Solving for Uz, Initial residual = 0.00574732, Final residual = 3.34969e-06, No Iterations 2
GAMG:  Solving for p, Initial residual = 0.0428367, Final residual = 0.000330676, No Iterations 5
GAMG:  Solving for p, Initial residual = 0.0095801, Final residual = 8.85709e-05, No Iterations 14
GAMG:  Solving for p, Initial residual = 0.00480255, Final residual = 4.63817e-05, No Iterations 10
time step continuity errors : sum local = 6.09359e-07, global = -1.59563e-07, cumulative = 1.263e-07
GAMG:  Solving for p, Initial residual = 0.00237097, Final residual = 2.19687e-05, No Iterations 8
GAMG:  Solving for p, Initial residual = 0.00128332, Final residual = 8.85371e-06, No Iterations 5
GAMG:  Solving for p, Initial residual = 0.000527383, Final residual = 9.21311e-07, No Iterations 28
time step continuity errors : sum local = 1.19855e-08, global = 3.60528e-09, cumulative = 1.29906e-07
DILUPBiCG:  Solving for omega, Initial residual = 0.00102261, Final residual = 7.1309e-07, No Iterations 1
DILUPBiCG:  Solving for k, Initial residual = 0.00358099, Final residual = 6.78652e-07, No Iterations 2
bounding k, min: 0 max: 0.000618361 average: 0.00015127
ExecutionTime = 18.96 s  ClockTime = 19 s

Courant Number mean: 0.131106 max: 0.28503
Time = 0.487

GAMG:  Solving for cellDisplacementx, Initial residual = 0, Final residual = 0, No Iterations 0
GAMG:  Solving for cellDisplacementy, Initial residual = 0, Final residual = 0, No Iterations 0
GAMG:  Solving for cellDisplacementz, Initial residual = 0, Final residual = 0, No Iterations 0
PIMPLE: iteration 1
DILUPBiCG:  Solving for Ux, Initial residual = 0.0615393, Final residual = 0.000242936, No Iterations 1
DILUPBiCG:  Solving for Uy, Initial residual = 0.0116904, Final residual = 2.46715e-05, No Iterations 1
DILUPBiCG:  Solving for Uz, Initial residual = 0.00977465, Final residual = 1.23651e-05, No Iterations 1
GAMG:  Solving for p, Initial residual = 0.107218, Final residual = 0.00089784, No Iterations 4
GAMG:  Solving for p, Initial residual = 0.0125417, Final residual = 0.000111574, No Iterations 20
GAMG:  Solving for p, Initial residual = 0.00620605, Final residual = 6.07255e-05, No Iterations 4
time step continuity errors : sum local = 7.84116e-07, global = 2.89459e-07, cumulative = 4.19364e-07
GAMG:  Solving for p, Initial residual = 0.0477432, Final residual = 0.000375242, No Iterations 4
GAMG:  Solving for p, Initial residual = 0.00635733, Final residual = 5.57467e-05, No Iterations 18
GAMG:  Solving for p, Initial residual = 0.00311511, Final residual = 2.61117e-05, No Iterations 10
time step continuity errors : sum local = 3.38519e-07, global = 8.7752e-08, cumulative = 5.07116e-07
PIMPLE: iteration 2
DILUPBiCG:  Solving for Ux, Initial residual = 0.0162279, Final residual = 0.000100859, No Iterations 1
DILUPBiCG:  Solving for Uy, Initial residual = 0.00323741, Final residual = 6.81023e-06, No Iterations 1
DILUPBiCG:  Solving for Uz, Initial residual = 0.00280034, Final residual = 9.64847e-06, No Iterations 1
GAMG:  Solving for p, Initial residual = 0.0462481, Final residual = 0.000299014, No Iterations 6
GAMG:  Solving for p, Initial residual = 0.00846815, Final residual = 7.33012e-05, No Iterations 16
GAMG:  Solving for p, Initial residual = 0.00324277, Final residual = 3.07734e-05, No Iterations 10
time step continuity errors : sum local = 3.46074e-07, global = -9.02234e-08, cumulative = 4.16893e-07
GAMG:  Solving for p, Initial residual = 0.0240939, Final residual = 0.000223693, No Iterations 4
GAMG:  Solving for p, Initial residual = 0.00427609, Final residual = 4.08455e-05, No Iterations 14
GAMG:  Solving for p, Initial residual = 0.00165381, Final residual = 1.48359e-05, No Iterations 12
time step continuity errors : sum local = 1.67598e-07, global = -4.86339e-08, cumulative = 3.68259e-07
PIMPLE: iteration 3
DILUPBiCG:  Solving for Ux, Initial residual = 0.00352202, Final residual = 3.09691e-06, No Iterations 2
DILUPBiCG:  Solving for Uy, Initial residual = 0.000729385, Final residual = 5.0282e-06, No Iterations 1
DILUPBiCG:  Solving for Uz, Initial residual = 0.00528346, Final residual = 3.66317e-06, No Iterations 2
GAMG:  Solving for p, Initial residual = 0.0434384, Final residual = 0.000326038, No Iterations 5
GAMG:  Solving for p, Initial residual = 0.00968486, Final residual = 8.98456e-05, No Iterations 14
GAMG:  Solving for p, Initial residual = 0.00490154, Final residual = 4.67944e-05, No Iterations 10
time step continuity errors : sum local = 5.90902e-07, global = -1.555e-07, cumulative = 2.12759e-07
GAMG:  Solving for p, Initial residual = 0.00239825, Final residual = 2.0182e-05, No Iterations 8
GAMG:  Solving for p, Initial residual = 0.00130265, Final residual = 9.5688e-06, No Iterations 5
GAMG:  Solving for p, Initial residual = 0.000536752, Final residual = 9.42031e-07, No Iterations 28
time step continuity errors : sum local = 1.1771e-08, global = 3.54491e-09, cumulative = 2.16303e-07
DILUPBiCG:  Solving for omega, Initial residual = 0.001059, Final residual = 7.11688e-07, No Iterations 1
DILUPBiCG:  Solving for k, Initial residual = 0.0035191, Final residual = 6.7873e-07, No Iterations 2
bounding k, min: 0 max: 0.000607456 average: 0.00015039
ExecutionTime = 21.83 s  ClockTime = 22 s

Courant Number mean: 0.126832 max: 0.275109
Time = 0.488

GAMG:  Solving for cellDisplacementx, Initial residual = 0, Final residual = 0, No Iterations 0
GAMG:  Solving for cellDisplacementy, Initial residual = 0, Final residual = 0, No Iterations 0
GAMG:  Solving for cellDisplacementz, Initial residual = 0, Final residual = 0, No Iterations 0
PIMPLE: iteration 1
DILUPBiCG:  Solving for Ux, Initial residual = 0.0596618, Final residual = 0.000235532, No Iterations 1
DILUPBiCG:  Solving for Uy, Initial residual = 0.0115538, Final residual = 2.42949e-05, No Iterations 1
DILUPBiCG:  Solving for Uz, Initial residual = 0.00967813, Final residual = 1.18974e-05, No Iterations 1
GAMG:  Solving for p, Initial residual = 0.106645, Final residual = 0.000849385, No Iterations 4
GAMG:  Solving for p, Initial residual = 0.0125033, Final residual = 0.000108479, No Iterations 20
GAMG:  Solving for p, Initial residual = 0.00626454, Final residual = 5.46071e-05, No Iterations 4
time step continuity errors : sum local = 6.74359e-07, global = 2.31614e-07, cumulative = 4.47917e-07
GAMG:  Solving for p, Initial residual = 0.0475663, Final residual = 0.000356816, No Iterations 4
GAMG:  Solving for p, Initial residual = 0.00628654, Final residual = 5.48404e-05, No Iterations 18
GAMG:  Solving for p, Initial residual = 0.00314069, Final residual = 3.13622e-05, No Iterations 4
time step continuity errors : sum local = 3.89146e-07, global = 1.28079e-07, cumulative = 5.75996e-07
PIMPLE: iteration 2
DILUPBiCG:  Solving for Ux, Initial residual = 0.0156238, Final residual = 9.72983e-05, No Iterations 1
DILUPBiCG:  Solving for Uy, Initial residual = 0.00314681, Final residual = 6.58466e-06, No Iterations 1
DILUPBiCG:  Solving for Uz, Initial residual = 0.00282378, Final residual = 9.43751e-06, No Iterations 1
GAMG:  Solving for p, Initial residual = 0.0459764, Final residual = 0.000299474, No Iterations 6
GAMG:  Solving for p, Initial residual = 0.00871935, Final residual = 7.62662e-05, No Iterations 16
GAMG:  Solving for p, Initial residual = 0.00337921, Final residual = 3.05246e-05, No Iterations 10
time step continuity errors : sum local = 3.28729e-07, global = -8.29688e-08, cumulative = 4.93027e-07
GAMG:  Solving for p, Initial residual = 0.0240547, Final residual = 0.000221332, No Iterations 4
GAMG:  Solving for p, Initial residual = 0.00448348, Final residual = 4.26468e-05, No Iterations 14
GAMG:  Solving for p, Initial residual = 0.00170501, Final residual = 1.46884e-05, No Iterations 12
time step continuity errors : sum local = 1.58856e-07, global = -4.60434e-08, cumulative = 4.46984e-07
PIMPLE: iteration 3
DILUPBiCG:  Solving for Ux, Initial residual = 0.00338311, Final residual = 3.02591e-06, No Iterations 2
DILUPBiCG:  Solving for Uy, Initial residual = 0.000701579, Final residual = 4.98844e-06, No Iterations 1
DILUPBiCG:  Solving for Uz, Initial residual = 0.00528308, Final residual = 3.0064e-06, No Iterations 2
GAMG:  Solving for p, Initial residual = 0.043946, Final residual = 0.000330308, No Iterations 5
GAMG:  Solving for p, Initial residual = 0.00979458, Final residual = 9.30757e-05, No Iterations 14
GAMG:  Solving for p, Initial residual = 0.00498106, Final residual = 4.94267e-05, No Iterations 10
time step continuity errors : sum local = 5.97661e-07, global = -1.57521e-07, cumulative = 2.89462e-07
GAMG:  Solving for p, Initial residual = 0.00239984, Final residual = 2.00896e-05, No Iterations 8
GAMG:  Solving for p, Initial residual = 0.00129123, Final residual = 9.7508e-06, No Iterations 5
GAMG:  Solving for p, Initial residual = 0.000527371, Final residual = 9.41413e-07, No Iterations 28
time step continuity errors : sum local = 1.12618e-08, global = 3.38493e-09, cumulative = 2.92847e-07
DILUPBiCG:  Solving for omega, Initial residual = 0.00109347, Final residual = 7.08825e-07, No Iterations 1
DILUPBiCG:  Solving for k, Initial residual = 0.00345824, Final residual = 6.87911e-07, No Iterations 2
bounding k, min: 0 max: 0.000595889 average: 0.000149538
ExecutionTime = 24.63 s  ClockTime = 25 s

Courant Number mean: 0.122806 max: 0.265802
Time = 0.489

GAMG:  Solving for cellDisplacementx, Initial residual = 0, Final residual = 0, No Iterations 0
GAMG:  Solving for cellDisplacementy, Initial residual = 0, Final residual = 0, No Iterations 0
GAMG:  Solving for cellDisplacementz, Initial residual = 0, Final residual = 0, No Iterations 0
PIMPLE: iteration 1
DILUPBiCG:  Solving for Ux, Initial residual = 0.0576188, Final residual = 0.000226679, No Iterations 1
DILUPBiCG:  Solving for Uy, Initial residual = 0.0112429, Final residual = 2.3497e-05, No Iterations 1
DILUPBiCG:  Solving for Uz, Initial residual = 0.0102781, Final residual = 1.14472e-05, No Iterations 1
GAMG:  Solving for p, Initial residual = 0.105507, Final residual = 0.000800115, No Iterations 4
GAMG:  Solving for p, Initial residual = 0.0126241, Final residual = 0.000124064, No Iterations 18
GAMG:  Solving for p, Initial residual = 0.0062883, Final residual = 5.17826e-05, No Iterations 10
time step continuity errors : sum local = 6.05777e-07, global = 1.55069e-07, cumulative = 4.47917e-07
GAMG:  Solving for p, Initial residual = 0.0473986, Final residual = 0.000328324, No Iterations 4
GAMG:  Solving for p, Initial residual = 0.00632851, Final residual = 6.14772e-05, No Iterations 16
GAMG:  Solving for p, Initial residual = 0.00313552, Final residual = 2.81127e-05, No Iterations 10
time step continuity errors : sum local = 3.30416e-07, global = 8.48535e-08, cumulative = 5.3277e-07
PIMPLE: iteration 2
DILUPBiCG:  Solving for Ux, Initial residual = 0.0149523, Final residual = 9.32107e-05, No Iterations 1
DILUPBiCG:  Solving for Uy, Initial residual = 0.00305128, Final residual = 6.35978e-06, No Iterations 1
DILUPBiCG:  Solving for Uz, Initial residual = 0.00276553, Final residual = 9.1532e-06, No Iterations 1
GAMG:  Solving for p, Initial residual = 0.045697, Final residual = 0.000301146, No Iterations 6
GAMG:  Solving for p, Initial residual = 0.00887516, Final residual = 8.63134e-05, No Iterations 14
GAMG:  Solving for p, Initial residual = 0.00327821, Final residual = 3.01923e-05, No Iterations 12
time step continuity errors : sum local = 3.08827e-07, global = -9.02343e-08, cumulative = 4.42536e-07
GAMG:  Solving for p, Initial residual = 0.0238626, Final residual = 0.000228459, No Iterations 4
GAMG:  Solving for p, Initial residual = 0.00450109, Final residual = 4.16126e-05, No Iterations 14
GAMG:  Solving for p, Initial residual = 0.00170851, Final residual = 1.47273e-05, No Iterations 12
time step continuity errors : sum local = 1.51146e-07, global = -4.42946e-08, cumulative = 3.98241e-07
PIMPLE: iteration 3
DILUPBiCG:  Solving for Ux, Initial residual = 0.00316076, Final residual = 3.0145e-06, No Iterations 2
DILUPBiCG:  Solving for Uy, Initial residual = 0.000678125, Final residual = 5.02781e-06, No Iterations 1
DILUPBiCG:  Solving for Uz, Initial residual = 0.00479237, Final residual = 3.52099e-06, No Iterations 2
GAMG:  Solving for p, Initial residual = 0.0447521, Final residual = 0.000327071, No Iterations 5
GAMG:  Solving for p, Initial residual = 0.0099555, Final residual = 9.46049e-05, No Iterations 14
GAMG:  Solving for p, Initial residual = 0.00512997, Final residual = 4.98332e-05, No Iterations 10
time step continuity errors : sum local = 5.71209e-07, global = -1.51187e-07, cumulative = 2.47055e-07
GAMG:  Solving for p, Initial residual = 0.00245341, Final residual = 1.98894e-05, No Iterations 8
GAMG:  Solving for p, Initial residual = 0.00132755, Final residual = 1.03088e-05, No Iterations 5
GAMG:  Solving for p, Initial residual = 0.000545756, Final residual = 9.46118e-07, No Iterations 28
time step continuity errors : sum local = 1.07193e-08, global = 3.23387e-09, cumulative = 2.50289e-07
DILUPBiCG:  Solving for omega, Initial residual = 0.00112581, Final residual = 7.04577e-07, No Iterations 1
DILUPBiCG:  Solving for k, Initial residual = 0.00339943, Final residual = 6.94425e-07, No Iterations 2
bounding k, min: 0 max: 0.000583591 average: 0.000148714
ExecutionTime = 27.43 s  ClockTime = 28 s

Courant Number mean: 0.11904 max: 0.257547
Time = 0.49

GAMG:  Solving for cellDisplacementx, Initial residual = 0, Final residual = 0, No Iterations 0
GAMG:  Solving for cellDisplacementy, Initial residual = 0, Final residual = 0, No Iterations 0
GAMG:  Solving for cellDisplacementz, Initial residual = 0, Final residual = 0, No Iterations 0
PIMPLE: iteration 1
DILUPBiCG:  Solving for Ux, Initial residual = 0.05486, Final residual = 0.00021631, No Iterations 1
DILUPBiCG:  Solving for Uy, Initial residual = 0.0109347, Final residual = 2.27952e-05, No Iterations 1
DILUPBiCG:  Solving for Uz, Initial residual = 0.00996791, Final residual = 1.11331e-05, No Iterations 1
GAMG:  Solving for p, Initial residual = 0.104892, Final residual = 0.000736916, No Iterations 4
GAMG:  Solving for p, Initial residual = 0.0125331, Final residual = 0.000120563, No Iterations 18
GAMG:  Solving for p, Initial residual = 0.00638069, Final residual = 5.8367e-05, No Iterations 4
time step continuity errors : sum local = 6.44014e-07, global = 2.24085e-07, cumulative = 4.74374e-07
GAMG:  Solving for p, Initial residual = 0.0472558, Final residual = 0.000318007, No Iterations 4
GAMG:  Solving for p, Initial residual = 0.00627262, Final residual = 6.16654e-05, No Iterations 16
GAMG:  Solving for p, Initial residual = 0.00317501, Final residual = 2.67781e-05, No Iterations 10
time step continuity errors : sum local = 2.97165e-07, global = 7.80423e-08, cumulative = 5.52416e-07
PIMPLE: iteration 2
DILUPBiCG:  Solving for Ux, Initial residual = 0.014189, Final residual = 8.84839e-05, No Iterations 1
DILUPBiCG:  Solving for Uy, Initial residual = 0.00292458, Final residual = 6.07233e-06, No Iterations 1
DILUPBiCG:  Solving for Uz, Initial residual = 0.00275541, Final residual = 8.90994e-06, No Iterations 1
GAMG:  Solving for p, Initial residual = 0.045413, Final residual = 0.000305824, No Iterations 6
GAMG:  Solving for p, Initial residual = 0.00939397, Final residual = 9.28038e-05, No Iterations 14
GAMG:  Solving for p, Initial residual = 0.00358549, Final residual = 3.03211e-05, No Iterations 12
time step continuity errors : sum local = 2.927e-07, global = -8.52929e-08, cumulative = 4.67123e-07
GAMG:  Solving for p, Initial residual = 0.0239306, Final residual = 0.000232269, No Iterations 4
GAMG:  Solving for p, Initial residual = 0.00492855, Final residual = 4.46841e-05, No Iterations 14
GAMG:  Solving for p, Initial residual = 0.00183654, Final residual = 1.82241e-05, No Iterations 10
time step continuity errors : sum local = 1.76458e-07, global = -4.44679e-08, cumulative = 4.22655e-07
PIMPLE: iteration 3
DILUPBiCG:  Solving for Ux, Initial residual = 0.00297869, Final residual = 2.93137e-06, No Iterations 2
DILUPBiCG:  Solving for Uy, Initial residual = 0.00063706, Final residual = 5.08822e-06, No Iterations 1
DILUPBiCG:  Solving for Uz, Initial residual = 0.00479708, Final residual = 2.7873e-06, No Iterations 2
GAMG:  Solving for p, Initial residual = 0.0452856, Final residual = 0.000340521, No Iterations 5
GAMG:  Solving for p, Initial residual = 0.010127, Final residual = 9.71406e-05, No Iterations 14
GAMG:  Solving for p, Initial residual = 0.0052134, Final residual = 5.15367e-05, No Iterations 10
time step continuity errors : sum local = 5.57597e-07, global = -1.47721e-07, cumulative = 2.74934e-07
GAMG:  Solving for p, Initial residual = 0.00245227, Final residual = 2.0456e-05, No Iterations 8
GAMG:  Solving for p, Initial residual = 0.00130457, Final residual = 9.95008e-06, No Iterations 5
GAMG:  Solving for p, Initial residual = 0.000525535, Final residual = 9.14914e-07, No Iterations 28
time step continuity errors : sum local = 9.78618e-09, global = 2.94569e-09, cumulative = 2.7788e-07
DILUPBiCG:  Solving for omega, Initial residual = 0.00115594, Final residual = 6.994e-07, No Iterations 1
DILUPBiCG:  Solving for k, Initial residual = 0.00334251, Final residual = 6.90918e-07, No Iterations 2
bounding k, min: 0 max: 0.000570238 average: 0.000147917
ExecutionTime = 30.16 s  ClockTime = 31 s

End

