/*---------------------------------------------------------------------------*\
| =========                 |                                                 |
| \\      /  F ield         | OpenFOAM: The Open Source CFD Toolbox           |
|  \\    /   O peration     | Version:  2.3.1                                 |
|   \\  /    A nd           | Web:      www.OpenFOAM.org                      |
|    \\/     M anipulation  |                                                 |
\*---------------------------------------------------------------------------*/
Build  : 2.3.1-262087cdf8db
Exec   : linearisedPimpleDyMFoam
Date   : Jun 05 2023
Time   : 23:54:02
Host   : "jcosson-VirtualBox"
PID    : 19335
Case   : /home/jcosson/workspace/henersj_shootingdata/calcs/moderate_deformed/primal/100_intervals_05-06-23/sweep8/interval19
nProcs : 1
sigFpe : Enabling floating point exception trapping (FOAM_SIGFPE).
fileModificationChecking : Monitoring run-time modified files using timeStampMaster
allowSystemOperations : Allowing user-supplied system call operations

// * * * * * * * * * * * * * * * * * * * * * * * * * * * * * * * * * * * * * //
Create time

Create mesh for time = 0.418

Selecting dynamicFvMesh dynamicMotionSolverFvMesh
Selecting motion solver: displacementLaplacian
Selecting motion diffusion: quadratic
Selecting motion diffusion: quadratic
Selecting motion diffusion: inverseDistance
Reading field linP

Reading field linU

starte createPhia.H

Reading/calculating face flux field linPhi

Adjungierte Interpolation durchgefuehrt

createPhia.H verlassen

setRefCell ausgefuehrt

No finite volume options present


PIMPLE: no residual control data found. Calculations will employ 3 corrector loops


Starting time loop

Time = 0.419

Reading field p

Reading field U

Read primal fluxes 

Reading primal face flux fields phi/meshPhi

Created primal fluxes 

Selecting incompressible transport model Newtonian
singlePhaseTransportModel gewaehlt 

Selecting turbulence model type RASModel
Selecting RAS turbulence model kOmegaSST
kOmegaSSTCoeffs
{
    alphaK1         0.85034;
    alphaK2         1;
    alphaOmega1     0.5;
    alphaOmega2     0.85616;
    gamma1          0.5532;
    gamma2          0.4403;
    beta1           0.075;
    beta2           0.0828;
    betaStar        0.09;
    a1              0.31;
    c1              10;
    Cmu             0.09;
    b1              1;
    F3              false;
}

autoPtr ausgefuehrt

Reading/calculating face velocity Uf

Init adjoint face velocity linUf

Courant Number mean: 0.153824 max: 0.332093
Adjoint Courant Number mean: 0.000159482 max: 0.00528036
GAMG:  Solving for cellDisplacementx, Initial residual = 0, Final residual = 0, No Iterations 0
GAMG:  Solving for cellDisplacementy, Initial residual = 0, Final residual = 0, No Iterations 0
GAMG:  Solving for cellDisplacementz, Initial residual = 0, Final residual = 0, No Iterations 0
PIMPLE: iteration 1
DILUPBiCG:  Solving for linUx, Initial residual = 0.0453688, Final residual = 7.85102e-05, No Iterations 1
DILUPBiCG:  Solving for linUy, Initial residual = 0.0886375, Final residual = 9.77875e-05, No Iterations 1
DILUPBiCG:  Solving for linUz, Initial residual = 0.0976495, Final residual = 0.00013575, No Iterations 1
GAMG:  Solving for linP, Initial residual = 1, Final residual = 0.00451024, No Iterations 3
GAMG:  Solving for linP, Initial residual = 0.0298923, Final residual = 0.000209762, No Iterations 4
GAMG:  Solving for linP, Initial residual = 0.0104216, Final residual = 9.91652e-05, No Iterations 4
Adjoint continuity errors : sum local = 3.09621e-08, global = -5.0367e-09, cumulative = -5.0367e-09
GAMG:  Solving for linP, Initial residual = 0.0228352, Final residual = 0.000177665, No Iterations 4
GAMG:  Solving for linP, Initial residual = 0.00566253, Final residual = 5.03903e-05, No Iterations 4
GAMG:  Solving for linP, Initial residual = 0.00178603, Final residual = 1.28052e-05, No Iterations 4
Adjoint continuity errors : sum local = 3.95061e-09, global = 1.47002e-09, cumulative = -3.56667e-09
PIMPLE: iteration 2
DILUPBiCG:  Solving for linUx, Initial residual = 0.0157665, Final residual = 8.9125e-05, No Iterations 1
DILUPBiCG:  Solving for linUy, Initial residual = 0.0253309, Final residual = 5.05745e-05, No Iterations 1
DILUPBiCG:  Solving for linUz, Initial residual = 0.0321339, Final residual = 0.000101811, No Iterations 1
GAMG:  Solving for linP, Initial residual = 0.0357587, Final residual = 0.000245475, No Iterations 3
GAMG:  Solving for linP, Initial residual = 0.00462246, Final residual = 2.50189e-05, No Iterations 4
GAMG:  Solving for linP, Initial residual = 0.00146434, Final residual = 8.85272e-06, No Iterations 4
Adjoint continuity errors : sum local = 2.75098e-09, global = -2.44323e-10, cumulative = -3.811e-09
GAMG:  Solving for linP, Initial residual = 0.00215647, Final residual = 1.65096e-05, No Iterations 4
GAMG:  Solving for linP, Initial residual = 0.000732075, Final residual = 6.96642e-06, No Iterations 3
GAMG:  Solving for linP, Initial residual = 0.00022849, Final residual = 1.21621e-06, No Iterations 4
Adjoint continuity errors : sum local = 3.78017e-10, global = 3.88762e-11, cumulative = -3.77212e-09
PIMPLE: iteration 3
DILUPBiCG:  Solving for linUx, Initial residual = 0.00131443, Final residual = 3.53098e-07, No Iterations 2
DILUPBiCG:  Solving for linUy, Initial residual = 0.00196989, Final residual = 7.64244e-06, No Iterations 1
DILUPBiCG:  Solving for linUz, Initial residual = 0.00198945, Final residual = 4.22875e-07, No Iterations 2
GAMG:  Solving for linP, Initial residual = 0.0404035, Final residual = 0.000119109, No Iterations 3
GAMG:  Solving for linP, Initial residual = 0.00224694, Final residual = 1.23168e-05, No Iterations 4
GAMG:  Solving for linP, Initial residual = 0.000877073, Final residual = 6.12037e-06, No Iterations 4
Adjoint continuity errors : sum local = 1.95447e-09, global = 5.35637e-10, cumulative = -3.23648e-09
GAMG:  Solving for linP, Initial residual = 0.00129921, Final residual = 5.36398e-06, No Iterations 4
GAMG:  Solving for linP, Initial residual = 0.00023653, Final residual = 2.31555e-06, No Iterations 3
GAMG:  Solving for linP, Initial residual = 8.78865e-05, Final residual = 7.66321e-07, No Iterations 4
Adjoint continuity errors : sum local = 2.44817e-10, global = 7.80285e-11, cumulative = -3.15846e-09
ExecutionTime = 12.75 s  ClockTime = 12 s

End

