/*---------------------------------------------------------------------------*\
| =========                 |                                                 |
| \\      /  F ield         | OpenFOAM: The Open Source CFD Toolbox           |
|  \\    /   O peration     | Version:  2.3.1                                 |
|   \\  /    A nd           | Web:      www.OpenFOAM.org                      |
|    \\/     M anipulation  |                                                 |
\*---------------------------------------------------------------------------*/
Build  : 2.3.1-262087cdf8db
Exec   : pimpleDyMFoam
Date   : Jun 05 2023
Time   : 23:51:55
Host   : "jcosson-VirtualBox"
PID    : 17580
Case   : /home/jcosson/workspace/henersj_shootingdata/calcs/moderate_deformed/primal/100_intervals_05-06-23/sweep8/interval48
nProcs : 1
sigFpe : Enabling floating point exception trapping (FOAM_SIGFPE).
fileModificationChecking : Monitoring run-time modified files using timeStampMaster
allowSystemOperations : Allowing user-supplied system call operations

// * * * * * * * * * * * * * * * * * * * * * * * * * * * * * * * * * * * * * //
Create time

Create mesh for time = 0.447

Selecting dynamicFvMesh dynamicMotionSolverFvMesh
Selecting motion solver: displacementLaplacian
Selecting motion diffusion: quadratic
Selecting motion diffusion: quadratic
Selecting motion diffusion: inverseDistance

PIMPLE: no residual control data found. Calculations will employ 3 corrector loops

Reading field p

Reading field U

Reading/calculating face flux field phi

Selecting incompressible transport model Newtonian
Selecting turbulence model type RASModel
Selecting RAS turbulence model kOmegaSST
kOmegaSSTCoeffs
{
    alphaK1         0.85034;
    alphaK2         1;
    alphaOmega1     0.5;
    alphaOmega2     0.85616;
    gamma1          0.5532;
    gamma2          0.4403;
    beta1           0.075;
    beta2           0.0828;
    betaStar        0.09;
    a1              0.31;
    c1              10;
    Cmu             0.09;
    b1              1;
    F3              false;
}

Reading/calculating face velocity Uf

No finite volume options present

Courant Number mean: 0.277836 max: 0.622268

Starting time loop

Courant Number mean: 0.277836 max: 0.622268
Time = 0.448

GAMG:  Solving for cellDisplacementx, Initial residual = 0, Final residual = 0, No Iterations 0
GAMG:  Solving for cellDisplacementy, Initial residual = 0, Final residual = 0, No Iterations 0
GAMG:  Solving for cellDisplacementz, Initial residual = 0, Final residual = 0, No Iterations 0
PIMPLE: iteration 1
DILUPBiCG:  Solving for Ux, Initial residual = 0.00928785, Final residual = 4.37195e-05, No Iterations 1
DILUPBiCG:  Solving for Uy, Initial residual = 0.00149229, Final residual = 7.13688e-06, No Iterations 1
DILUPBiCG:  Solving for Uz, Initial residual = 0.0142983, Final residual = 3.50157e-05, No Iterations 1
GAMG:  Solving for p, Initial residual = 0.150828, Final residual = 0.000922397, No Iterations 3
GAMG:  Solving for p, Initial residual = 0.0253233, Final residual = 0.000154177, No Iterations 4
GAMG:  Solving for p, Initial residual = 0.010254, Final residual = 3.14932e-05, No Iterations 5
time step continuity errors : sum local = 1.07789e-07, global = 2.82235e-09, cumulative = 2.82235e-09
GAMG:  Solving for p, Initial residual = 0.0750142, Final residual = 0.00038611, No Iterations 3
GAMG:  Solving for p, Initial residual = 0.0124108, Final residual = 6.71894e-05, No Iterations 4
GAMG:  Solving for p, Initial residual = 0.00516524, Final residual = 4.11693e-05, No Iterations 4
time step continuity errors : sum local = 1.41326e-07, global = -1.60749e-08, cumulative = -1.32525e-08
PIMPLE: iteration 2
DILUPBiCG:  Solving for Ux, Initial residual = 0.00228019, Final residual = 1.70849e-05, No Iterations 1
DILUPBiCG:  Solving for Uy, Initial residual = 0.000376249, Final residual = 9.91007e-06, No Iterations 1
DILUPBiCG:  Solving for Uz, Initial residual = 0.00418534, Final residual = 1.26787e-05, No Iterations 1
GAMG:  Solving for p, Initial residual = 0.0769571, Final residual = 0.000611158, No Iterations 5
GAMG:  Solving for p, Initial residual = 0.0223155, Final residual = 0.000207161, No Iterations 9
GAMG:  Solving for p, Initial residual = 0.00733399, Final residual = 7.173e-05, No Iterations 14
time step continuity errors : sum local = 2.11788e-07, global = 6.45417e-08, cumulative = 5.12892e-08
GAMG:  Solving for p, Initial residual = 0.0417314, Final residual = 0.000377045, No Iterations 4
GAMG:  Solving for p, Initial residual = 0.0105662, Final residual = 0.000101389, No Iterations 10
GAMG:  Solving for p, Initial residual = 0.00365522, Final residual = 3.24422e-05, No Iterations 14
time step continuity errors : sum local = 9.64315e-08, global = 2.91244e-08, cumulative = 8.04136e-08
PIMPLE: iteration 3
DILUPBiCG:  Solving for Ux, Initial residual = 0.000312835, Final residual = 4.01012e-06, No Iterations 1
DILUPBiCG:  Solving for Uy, Initial residual = 6.09523e-05, Final residual = 1.14426e-06, No Iterations 1
DILUPBiCG:  Solving for Uz, Initial residual = 0.00280681, Final residual = 3.93383e-07, No Iterations 2
GAMG:  Solving for p, Initial residual = 0.0647635, Final residual = 0.000497864, No Iterations 5
GAMG:  Solving for p, Initial residual = 0.0176728, Final residual = 0.000170648, No Iterations 12
GAMG:  Solving for p, Initial residual = 0.00797324, Final residual = 6.49374e-05, No Iterations 10
time step continuity errors : sum local = 2.11502e-07, global = 5.42779e-08, cumulative = 1.34691e-07
GAMG:  Solving for p, Initial residual = 0.00596794, Final residual = 5.91596e-05, No Iterations 8
GAMG:  Solving for p, Initial residual = 0.00322335, Final residual = 2.69086e-05, No Iterations 7
GAMG:  Solving for p, Initial residual = 0.00109851, Final residual = 9.70136e-07, No Iterations 40
time step continuity errors : sum local = 3.14762e-09, global = -9.34393e-10, cumulative = 1.33757e-07
DILUPBiCG:  Solving for omega, Initial residual = 0.00143757, Final residual = 1.98789e-06, No Iterations 1
DILUPBiCG:  Solving for k, Initial residual = 0.00589933, Final residual = 8.7877e-07, No Iterations 2
ExecutionTime = 16.48 s  ClockTime = 16 s

End

