/*---------------------------------------------------------------------------*\
| =========                 |                                                 |
| \\      /  F ield         | OpenFOAM: The Open Source CFD Toolbox           |
|  \\    /   O peration     | Version:  2.3.1                                 |
|   \\  /    A nd           | Web:      www.OpenFOAM.org                      |
|    \\/     M anipulation  |                                                 |
\*---------------------------------------------------------------------------*/
Build  : 2.3.1-262087cdf8db
Exec   : computeShootingDefect
Date   : Jun 05 2023
Time   : 23:53:38
Host   : "jcosson-VirtualBox"
PID    : 17834
Case   : /home/jcosson/workspace/henersj_shootingdata/calcs/moderate_deformed/primal/100_intervals_05-06-23/sweep8/interval98/shootingDefect
nProcs : 1
sigFpe : Enabling floating point exception trapping (FOAM_SIGFPE).
fileModificationChecking : Monitoring run-time modified files using timeStampMaster
allowSystemOperations : Allowing user-supplied system call operations

// * * * * * * * * * * * * * * * * * * * * * * * * * * * * * * * * * * * * * //
Create time

Create mesh for time = 0

Time = 0

    Calculation completed 
    write shootingDefectP 

    Calculation completed 
    write shootingDefectU 

    Calculation completed 
    write shootingDefectPhi 

Calculating Continuity Defect ...
shooting sweep continuity defects (velocity): sum local = 0.104047, global = 2.93091e-06
shooting sweep continuity defects (fluxes): sum local = 9.80942e-05, global = 1.97729e-06
End
