/*---------------------------------------------------------------------------*\
| =========                 |                                                 |
| \\      /  F ield         | OpenFOAM: The Open Source CFD Toolbox           |
|  \\    /   O peration     | Version:  2.3.1                                 |
|   \\  /    A nd           | Web:      www.OpenFOAM.org                      |
|    \\/     M anipulation  |                                                 |
\*---------------------------------------------------------------------------*/
Build  : 2.3.1-262087cdf8db
Exec   : pimpleDyMFoam
Date   : Jun 04 2023
Time   : 16:57:53
Host   : "jcosson-VirtualBox"
PID    : 4619
Case   : /home/jcosson/workspace/henersj_shootingdata/calcs/moderate_deformed/primal/10_intervals_04-06-23/sweep6/interval6
nProcs : 1
sigFpe : Enabling floating point exception trapping (FOAM_SIGFPE).
fileModificationChecking : Monitoring run-time modified files using timeStampMaster
allowSystemOperations : Allowing user-supplied system call operations

// * * * * * * * * * * * * * * * * * * * * * * * * * * * * * * * * * * * * * //
Create time

Create mesh for time = 0.45

Selecting dynamicFvMesh dynamicMotionSolverFvMesh
Selecting motion solver: displacementLaplacian
Selecting motion diffusion: quadratic
Selecting motion diffusion: quadratic
Selecting motion diffusion: inverseDistance

PIMPLE: no residual control data found. Calculations will employ 3 corrector loops

Reading field p

Reading field U

Reading/calculating face flux field phi

Selecting incompressible transport model Newtonian
Selecting turbulence model type RASModel
Selecting RAS turbulence model kOmegaSST
kOmegaSSTCoeffs
{
    alphaK1         0.85034;
    alphaK2         1;
    alphaOmega1     0.5;
    alphaOmega2     0.85616;
    gamma1          0.5532;
    gamma2          0.4403;
    beta1           0.075;
    beta2           0.0828;
    betaStar        0.09;
    a1              0.31;
    c1              10;
    Cmu             0.09;
    b1              1;
    F3              false;
}

Reading/calculating face velocity Uf

No finite volume options present

Courant Number mean: 0.280054 max: 0.621322

Starting time loop

Courant Number mean: 0.280054 max: 0.621322
Time = 0.451

GAMG:  Solving for cellDisplacementx, Initial residual = 0, Final residual = 0, No Iterations 0
GAMG:  Solving for cellDisplacementy, Initial residual = 0, Final residual = 0, No Iterations 0
GAMG:  Solving for cellDisplacementz, Initial residual = 0, Final residual = 0, No Iterations 0
PIMPLE: iteration 1
DILUPBiCG:  Solving for Ux, Initial residual = 0.00174047, Final residual = 3.12174e-05, No Iterations 1
DILUPBiCG:  Solving for Uy, Initial residual = 0.00040115, Final residual = 8.69362e-06, No Iterations 1
DILUPBiCG:  Solving for Uz, Initial residual = 0.0118619, Final residual = 2.80727e-05, No Iterations 1
GAMG:  Solving for p, Initial residual = 0.205223, Final residual = 0.00137936, No Iterations 4
GAMG:  Solving for p, Initial residual = 0.0434255, Final residual = 0.000386956, No Iterations 20
GAMG:  Solving for p, Initial residual = 0.031035, Final residual = 0.000300555, No Iterations 4
time step continuity errors : sum local = 6.23037e-07, global = 1.40907e-07, cumulative = 1.40907e-07
GAMG:  Solving for p, Initial residual = 0.121228, Final residual = 0.000738384, No Iterations 4
GAMG:  Solving for p, Initial residual = 0.0214818, Final residual = 0.000201097, No Iterations 18
GAMG:  Solving for p, Initial residual = 0.0146901, Final residual = 0.000140667, No Iterations 4
time step continuity errors : sum local = 2.89192e-07, global = 7.1386e-08, cumulative = 2.12293e-07
PIMPLE: iteration 2
DILUPBiCG:  Solving for Ux, Initial residual = 0.000178682, Final residual = 2.09239e-06, No Iterations 1
DILUPBiCG:  Solving for Uy, Initial residual = 6.86323e-05, Final residual = 1.89955e-07, No Iterations 1
DILUPBiCG:  Solving for Uz, Initial residual = 0.00361133, Final residual = 1.20145e-05, No Iterations 1
GAMG:  Solving for p, Initial residual = 0.123393, Final residual = 0.000709606, No Iterations 4
GAMG:  Solving for p, Initial residual = 0.0220064, Final residual = 0.00019612, No Iterations 18
GAMG:  Solving for p, Initial residual = 0.0144288, Final residual = 0.000138013, No Iterations 4
time step continuity errors : sum local = 2.7744e-07, global = 6.73761e-08, cumulative = 2.79669e-07
GAMG:  Solving for p, Initial residual = 0.0603794, Final residual = 0.000329202, No Iterations 4
GAMG:  Solving for p, Initial residual = 0.0114597, Final residual = 0.000103312, No Iterations 14
GAMG:  Solving for p, Initial residual = 0.00652652, Final residual = 5.80285e-05, No Iterations 4
time step continuity errors : sum local = 1.16187e-07, global = 3.94605e-08, cumulative = 3.1913e-07
PIMPLE: iteration 3
DILUPBiCG:  Solving for Ux, Initial residual = 0.000284601, Final residual = 2.24524e-06, No Iterations 1
DILUPBiCG:  Solving for Uy, Initial residual = 6.12825e-05, Final residual = 6.52694e-07, No Iterations 1
DILUPBiCG:  Solving for Uz, Initial residual = 0.00146989, Final residual = 7.50165e-06, No Iterations 1
GAMG:  Solving for p, Initial residual = 0.124964, Final residual = 0.000421677, No Iterations 4
GAMG:  Solving for p, Initial residual = 0.0265981, Final residual = 0.000231487, No Iterations 4
GAMG:  Solving for p, Initial residual = 0.0109992, Final residual = 9.08237e-05, No Iterations 10
time step continuity errors : sum local = 1.68937e-07, global = 4.50426e-08, cumulative = 3.64172e-07
GAMG:  Solving for p, Initial residual = 0.00950321, Final residual = 3.4601e-05, No Iterations 5
GAMG:  Solving for p, Initial residual = 0.00468532, Final residual = 2.52028e-05, No Iterations 4
GAMG:  Solving for p, Initial residual = 0.00155468, Final residual = 9.27471e-07, No Iterations 12
time step continuity errors : sum local = 1.73907e-09, global = 5.4106e-10, cumulative = 3.64713e-07
DILUPBiCG:  Solving for omega, Initial residual = 0.00103697, Final residual = 1.45522e-06, No Iterations 1
DILUPBiCG:  Solving for k, Initial residual = 0.00522269, Final residual = 9.08519e-07, No Iterations 2
ExecutionTime = 6.04 s  ClockTime = 6 s

Courant Number mean: 0.27988 max: 0.621241
Time = 0.452

GAMG:  Solving for cellDisplacementx, Initial residual = 0, Final residual = 0, No Iterations 0
GAMG:  Solving for cellDisplacementy, Initial residual = 0, Final residual = 0, No Iterations 0
GAMG:  Solving for cellDisplacementz, Initial residual = 0, Final residual = 0, No Iterations 0
PIMPLE: iteration 1
DILUPBiCG:  Solving for Ux, Initial residual = 0.00128008, Final residual = 1.01108e-05, No Iterations 1
DILUPBiCG:  Solving for Uy, Initial residual = 0.000343062, Final residual = 5.47305e-06, No Iterations 1
DILUPBiCG:  Solving for Uz, Initial residual = 0.0109029, Final residual = 2.69485e-05, No Iterations 1
GAMG:  Solving for p, Initial residual = 0.172908, Final residual = 0.00142457, No Iterations 10
GAMG:  Solving for p, Initial residual = 0.0383858, Final residual = 0.000359454, No Iterations 10
GAMG:  Solving for p, Initial residual = 0.015864, Final residual = 0.000136465, No Iterations 12
time step continuity errors : sum local = 3.52361e-07, global = 1.05182e-07, cumulative = 4.69896e-07
GAMG:  Solving for p, Initial residual = 0.0658587, Final residual = 0.000649917, No Iterations 6
GAMG:  Solving for p, Initial residual = 0.018539, Final residual = 0.000173289, No Iterations 12
GAMG:  Solving for p, Initial residual = 0.00650756, Final residual = 5.45308e-05, No Iterations 14
time step continuity errors : sum local = 1.40334e-07, global = 4.40193e-08, cumulative = 5.13915e-07
PIMPLE: iteration 2
DILUPBiCG:  Solving for Ux, Initial residual = 0.000863796, Final residual = 3.55078e-06, No Iterations 1
DILUPBiCG:  Solving for Uy, Initial residual = 0.000178056, Final residual = 1.46263e-06, No Iterations 1
DILUPBiCG:  Solving for Uz, Initial residual = 0.00384587, Final residual = 1.21542e-05, No Iterations 1
GAMG:  Solving for p, Initial residual = 0.0655977, Final residual = 0.00048095, No Iterations 4
GAMG:  Solving for p, Initial residual = 0.0169213, Final residual = 0.000154049, No Iterations 10
GAMG:  Solving for p, Initial residual = 0.00640792, Final residual = 5.91949e-05, No Iterations 10
time step continuity errors : sum local = 1.41786e-07, global = 3.63451e-08, cumulative = 5.5026e-07
GAMG:  Solving for p, Initial residual = 0.0308227, Final residual = 0.000199011, No Iterations 4
GAMG:  Solving for p, Initial residual = 0.00841563, Final residual = 8.28683e-05, No Iterations 8
GAMG:  Solving for p, Initial residual = 0.00301926, Final residual = 2.72708e-05, No Iterations 12
time step continuity errors : sum local = 6.53843e-08, global = 1.92062e-08, cumulative = 5.69467e-07
PIMPLE: iteration 3
DILUPBiCG:  Solving for Ux, Initial residual = 0.000468012, Final residual = 8.38897e-06, No Iterations 1
DILUPBiCG:  Solving for Uy, Initial residual = 8.88163e-05, Final residual = 1.15934e-06, No Iterations 1
DILUPBiCG:  Solving for Uz, Initial residual = 0.00136688, Final residual = 6.42884e-06, No Iterations 1
GAMG:  Solving for p, Initial residual = 0.0918389, Final residual = 0.000716682, No Iterations 3
GAMG:  Solving for p, Initial residual = 0.0209561, Final residual = 0.000150491, No Iterations 4
GAMG:  Solving for p, Initial residual = 0.00938876, Final residual = 6.57806e-05, No Iterations 4
time step continuity errors : sum local = 1.5625e-07, global = -3.6934e-08, cumulative = 5.32533e-07
GAMG:  Solving for p, Initial residual = 0.00664976, Final residual = 6.15005e-05, No Iterations 4
GAMG:  Solving for p, Initial residual = 0.00360748, Final residual = 2.09231e-05, No Iterations 4
GAMG:  Solving for p, Initial residual = 0.00122559, Final residual = 7.50488e-07, No Iterations 11
time step continuity errors : sum local = 1.77325e-09, global = 3.44466e-10, cumulative = 5.32877e-07
DILUPBiCG:  Solving for omega, Initial residual = 0.000995946, Final residual = 1.41446e-06, No Iterations 1
DILUPBiCG:  Solving for k, Initial residual = 0.00502335, Final residual = 9.77541e-07, No Iterations 2
ExecutionTime = 10.41 s  ClockTime = 10 s

Courant Number mean: 0.279345 max: 0.620426
Time = 0.453

GAMG:  Solving for cellDisplacementx, Initial residual = 0, Final residual = 0, No Iterations 0
GAMG:  Solving for cellDisplacementy, Initial residual = 0, Final residual = 0, No Iterations 0
GAMG:  Solving for cellDisplacementz, Initial residual = 0, Final residual = 0, No Iterations 0
PIMPLE: iteration 1
DILUPBiCG:  Solving for Ux, Initial residual = 0.00377835, Final residual = 1.49414e-05, No Iterations 1
DILUPBiCG:  Solving for Uy, Initial residual = 0.000711046, Final residual = 4.90161e-06, No Iterations 1
DILUPBiCG:  Solving for Uz, Initial residual = 0.0123761, Final residual = 3.08654e-05, No Iterations 1
GAMG:  Solving for p, Initial residual = 0.17111, Final residual = 0.00168114, No Iterations 8
GAMG:  Solving for p, Initial residual = 0.0327769, Final residual = 0.000276246, No Iterations 14
GAMG:  Solving for p, Initial residual = 0.0120593, Final residual = 0.000106851, No Iterations 12
time step continuity errors : sum local = 3.43464e-07, global = 1.02381e-07, cumulative = 6.35259e-07
GAMG:  Solving for p, Initial residual = 0.0650872, Final residual = 0.000574896, No Iterations 6
GAMG:  Solving for p, Initial residual = 0.0158893, Final residual = 0.000153348, No Iterations 12
GAMG:  Solving for p, Initial residual = 0.00578585, Final residual = 4.84401e-05, No Iterations 14
time step continuity errors : sum local = 1.54698e-07, global = 4.86223e-08, cumulative = 6.83881e-07
PIMPLE: iteration 2
DILUPBiCG:  Solving for Ux, Initial residual = 0.00163942, Final residual = 1.35407e-05, No Iterations 1
DILUPBiCG:  Solving for Uy, Initial residual = 0.000300929, Final residual = 2.21321e-06, No Iterations 1
DILUPBiCG:  Solving for Uz, Initial residual = 0.00421513, Final residual = 1.31987e-05, No Iterations 1
GAMG:  Solving for p, Initial residual = 0.0650879, Final residual = 0.000634193, No Iterations 3
GAMG:  Solving for p, Initial residual = 0.0151098, Final residual = 0.000128203, No Iterations 9
GAMG:  Solving for p, Initial residual = 0.00610523, Final residual = 5.59097e-05, No Iterations 4
time step continuity errors : sum local = 1.6078e-07, global = 6.0051e-08, cumulative = 7.43932e-07
GAMG:  Solving for p, Initial residual = 0.0313772, Final residual = 0.000282882, No Iterations 3
GAMG:  Solving for p, Initial residual = 0.00721995, Final residual = 6.26497e-05, No Iterations 9
GAMG:  Solving for p, Initial residual = 0.00295071, Final residual = 2.73708e-05, No Iterations 4
time step continuity errors : sum local = 7.9138e-08, global = 2.95475e-08, cumulative = 7.73479e-07
PIMPLE: iteration 3
DILUPBiCG:  Solving for Ux, Initial residual = 0.000663146, Final residual = 1.2245e-07, No Iterations 2
DILUPBiCG:  Solving for Uy, Initial residual = 0.00011888, Final residual = 1.92428e-06, No Iterations 1
DILUPBiCG:  Solving for Uz, Initial residual = 0.00137174, Final residual = 7.61175e-06, No Iterations 1
GAMG:  Solving for p, Initial residual = 0.0732493, Final residual = 0.000342904, No Iterations 4
GAMG:  Solving for p, Initial residual = 0.0163517, Final residual = 0.000141726, No Iterations 4
GAMG:  Solving for p, Initial residual = 0.00773629, Final residual = 7.51491e-05, No Iterations 4
time step continuity errors : sum local = 2.2243e-07, global = -3.78191e-08, cumulative = 7.3566e-07
GAMG:  Solving for p, Initial residual = 0.00528816, Final residual = 3.31502e-05, No Iterations 5
GAMG:  Solving for p, Initial residual = 0.00292333, Final residual = 2.56149e-05, No Iterations 4
GAMG:  Solving for p, Initial residual = 0.00101553, Final residual = 9.10564e-07, No Iterations 30
time step continuity errors : sum local = 2.67734e-09, global = 7.98924e-10, cumulative = 7.36459e-07
DILUPBiCG:  Solving for omega, Initial residual = 0.000952475, Final residual = 1.36987e-06, No Iterations 1
DILUPBiCG:  Solving for k, Initial residual = 0.00485392, Final residual = 1.06874e-06, No Iterations 2
ExecutionTime = 14.5 s  ClockTime = 14 s

Courant Number mean: 0.278453 max: 0.618719
Time = 0.454

GAMG:  Solving for cellDisplacementx, Initial residual = 0, Final residual = 0, No Iterations 0
GAMG:  Solving for cellDisplacementy, Initial residual = 0, Final residual = 0, No Iterations 0
GAMG:  Solving for cellDisplacementz, Initial residual = 0, Final residual = 0, No Iterations 0
PIMPLE: iteration 1
DILUPBiCG:  Solving for Ux, Initial residual = 0.00636723, Final residual = 2.35703e-05, No Iterations 1
DILUPBiCG:  Solving for Uy, Initial residual = 0.00110115, Final residual = 4.12559e-06, No Iterations 1
DILUPBiCG:  Solving for Uz, Initial residual = 0.013618, Final residual = 3.38983e-05, No Iterations 1
GAMG:  Solving for p, Initial residual = 0.167472, Final residual = 0.00157826, No Iterations 8
GAMG:  Solving for p, Initial residual = 0.0295379, Final residual = 0.000258349, No Iterations 14
GAMG:  Solving for p, Initial residual = 0.0109209, Final residual = 9.97793e-05, No Iterations 12
time step continuity errors : sum local = 3.89308e-07, global = 1.16418e-07, cumulative = 8.52878e-07
GAMG:  Solving for p, Initial residual = 0.0641698, Final residual = 0.00054035, No Iterations 6
GAMG:  Solving for p, Initial residual = 0.0142836, Final residual = 0.00012092, No Iterations 14
GAMG:  Solving for p, Initial residual = 0.0055701, Final residual = 5.34053e-05, No Iterations 10
time step continuity errors : sum local = 2.07322e-07, global = 5.3594e-08, cumulative = 9.06472e-07
PIMPLE: iteration 2
DILUPBiCG:  Solving for Ux, Initial residual = 0.00242462, Final residual = 1.9653e-05, No Iterations 1
DILUPBiCG:  Solving for Uy, Initial residual = 0.000426088, Final residual = 2.66494e-06, No Iterations 1
DILUPBiCG:  Solving for Uz, Initial residual = 0.00432149, Final residual = 1.30563e-05, No Iterations 1
GAMG:  Solving for p, Initial residual = 0.0645464, Final residual = 0.000548085, No Iterations 3
GAMG:  Solving for p, Initial residual = 0.0139287, Final residual = 0.000112533, No Iterations 5
GAMG:  Solving for p, Initial residual = 0.00558916, Final residual = 5.27161e-05, No Iterations 4
time step continuity errors : sum local = 1.80374e-07, global = 4.91422e-08, cumulative = 9.55614e-07
GAMG:  Solving for p, Initial residual = 0.0316221, Final residual = 0.000284371, No Iterations 3
GAMG:  Solving for p, Initial residual = 0.00656096, Final residual = 4.68917e-05, No Iterations 5
GAMG:  Solving for p, Initial residual = 0.00274531, Final residual = 2.01261e-05, No Iterations 4
time step continuity errors : sum local = 6.93433e-08, global = 2.08264e-08, cumulative = 9.7644e-07
PIMPLE: iteration 3
DILUPBiCG:  Solving for Ux, Initial residual = 0.000863167, Final residual = 1.62157e-07, No Iterations 2
DILUPBiCG:  Solving for Uy, Initial residual = 0.000149678, Final residual = 2.68605e-06, No Iterations 1
DILUPBiCG:  Solving for Uz, Initial residual = 0.0017118, Final residual = 6.19685e-07, No Iterations 2
GAMG:  Solving for p, Initial residual = 0.0614808, Final residual = 0.000408035, No Iterations 4
GAMG:  Solving for p, Initial residual = 0.0143956, Final residual = 0.000120905, No Iterations 8
GAMG:  Solving for p, Initial residual = 0.00670537, Final residual = 6.13837e-05, No Iterations 8
time step continuity errors : sum local = 2.21758e-07, global = -4.92531e-08, cumulative = 9.27187e-07
GAMG:  Solving for p, Initial residual = 0.00463481, Final residual = 4.19087e-05, No Iterations 7
GAMG:  Solving for p, Initial residual = 0.00254188, Final residual = 2.11125e-05, No Iterations 6
GAMG:  Solving for p, Initial residual = 0.00088464, Final residual = 9.92727e-07, No Iterations 36
time step continuity errors : sum local = 3.56215e-09, global = 1.05739e-09, cumulative = 9.28244e-07
DILUPBiCG:  Solving for omega, Initial residual = 0.000907258, Final residual = 1.32383e-06, No Iterations 1
DILUPBiCG:  Solving for k, Initial residual = 0.00472352, Final residual = 1.09945e-06, No Iterations 2
ExecutionTime = 18.61 s  ClockTime = 18 s

Courant Number mean: 0.277207 max: 0.616168
Time = 0.455

GAMG:  Solving for cellDisplacementx, Initial residual = 0, Final residual = 0, No Iterations 0
GAMG:  Solving for cellDisplacementy, Initial residual = 0, Final residual = 0, No Iterations 0
GAMG:  Solving for cellDisplacementz, Initial residual = 0, Final residual = 0, No Iterations 0
PIMPLE: iteration 1
DILUPBiCG:  Solving for Ux, Initial residual = 0.00899741, Final residual = 3.22181e-05, No Iterations 1
DILUPBiCG:  Solving for Uy, Initial residual = 0.00149946, Final residual = 4.32629e-06, No Iterations 1
DILUPBiCG:  Solving for Uz, Initial residual = 0.0139176, Final residual = 3.46451e-05, No Iterations 1
GAMG:  Solving for p, Initial residual = 0.16055, Final residual = 0.00148216, No Iterations 8
GAMG:  Solving for p, Initial residual = 0.0258637, Final residual = 0.000246499, No Iterations 14
GAMG:  Solving for p, Initial residual = 0.00979887, Final residual = 9.61892e-05, No Iterations 12
time step continuity errors : sum local = 4.43301e-07, global = 1.32762e-07, cumulative = 1.06101e-06
GAMG:  Solving for p, Initial residual = 0.0622242, Final residual = 0.000513868, No Iterations 6
GAMG:  Solving for p, Initial residual = 0.0125512, Final residual = 0.000115937, No Iterations 14
GAMG:  Solving for p, Initial residual = 0.00507927, Final residual = 4.28481e-05, No Iterations 12
time step continuity errors : sum local = 1.96438e-07, global = 5.82917e-08, cumulative = 1.1193e-06
PIMPLE: iteration 2
DILUPBiCG:  Solving for Ux, Initial residual = 0.0032146, Final residual = 2.25776e-05, No Iterations 1
DILUPBiCG:  Solving for Uy, Initial residual = 0.000552839, Final residual = 2.93513e-06, No Iterations 1
DILUPBiCG:  Solving for Uz, Initial residual = 0.00424628, Final residual = 1.2213e-05, No Iterations 1
GAMG:  Solving for p, Initial residual = 0.0629955, Final residual = 0.000219965, No Iterations 4
GAMG:  Solving for p, Initial residual = 0.0123295, Final residual = 0.000110519, No Iterations 4
GAMG:  Solving for p, Initial residual = 0.00521277, Final residual = 3.56642e-05, No Iterations 7
time step continuity errors : sum local = 1.42525e-07, global = 2.20203e-08, cumulative = 1.14132e-06
GAMG:  Solving for p, Initial residual = 0.0310556, Final residual = 0.000296981, No Iterations 3
GAMG:  Solving for p, Initial residual = 0.00587688, Final residual = 5.03336e-05, No Iterations 4
GAMG:  Solving for p, Initial residual = 0.0025516, Final residual = 2.23759e-05, No Iterations 5
time step continuity errors : sum local = 8.98915e-08, global = 1.49517e-08, cumulative = 1.15627e-06
PIMPLE: iteration 3
DILUPBiCG:  Solving for Ux, Initial residual = 0.00105874, Final residual = 2.07382e-07, No Iterations 2
DILUPBiCG:  Solving for Uy, Initial residual = 0.000180626, Final residual = 3.45315e-06, No Iterations 1
DILUPBiCG:  Solving for Uz, Initial residual = 0.00215317, Final residual = 8.11241e-07, No Iterations 2
GAMG:  Solving for p, Initial residual = 0.0541927, Final residual = 0.000358944, No Iterations 4
GAMG:  Solving for p, Initial residual = 0.0130793, Final residual = 0.000110352, No Iterations 10
GAMG:  Solving for p, Initial residual = 0.0061022, Final residual = 5.68488e-05, No Iterations 4
time step continuity errors : sum local = 2.43352e-07, global = -8.9316e-08, cumulative = 1.06695e-06
GAMG:  Solving for p, Initial residual = 0.00416453, Final residual = 4.15192e-05, No Iterations 7
GAMG:  Solving for p, Initial residual = 0.00228483, Final residual = 1.89509e-05, No Iterations 6
GAMG:  Solving for p, Initial residual = 0.000817184, Final residual = 9.0513e-07, No Iterations 36
time step continuity errors : sum local = 3.85377e-09, global = 1.14238e-09, cumulative = 1.0681e-06
DILUPBiCG:  Solving for omega, Initial residual = 0.000861354, Final residual = 1.27915e-06, No Iterations 1
DILUPBiCG:  Solving for k, Initial residual = 0.00467705, Final residual = 1.04313e-06, No Iterations 2
ExecutionTime = 22.95 s  ClockTime = 23 s

Courant Number mean: 0.27561 max: 0.612833
Time = 0.456

GAMG:  Solving for cellDisplacementx, Initial residual = 0, Final residual = 0, No Iterations 0
GAMG:  Solving for cellDisplacementy, Initial residual = 0, Final residual = 0, No Iterations 0
GAMG:  Solving for cellDisplacementz, Initial residual = 0, Final residual = 0, No Iterations 0
PIMPLE: iteration 1
DILUPBiCG:  Solving for Ux, Initial residual = 0.0116275, Final residual = 4.21224e-05, No Iterations 1
DILUPBiCG:  Solving for Uy, Initial residual = 0.00190012, Final residual = 4.89915e-06, No Iterations 1
DILUPBiCG:  Solving for Uz, Initial residual = 0.013755, Final residual = 3.36901e-05, No Iterations 1
GAMG:  Solving for p, Initial residual = 0.153271, Final residual = 0.00140862, No Iterations 8
GAMG:  Solving for p, Initial residual = 0.0228742, Final residual = 0.000201325, No Iterations 16
GAMG:  Solving for p, Initial residual = 0.00878213, Final residual = 7.82007e-05, No Iterations 12
time step continuity errors : sum local = 4.16188e-07, global = 1.24469e-07, cumulative = 1.19257e-06
GAMG:  Solving for p, Initial residual = 0.0599587, Final residual = 0.000493839, No Iterations 6
GAMG:  Solving for p, Initial residual = 0.0111112, Final residual = 9.59149e-05, No Iterations 16
GAMG:  Solving for p, Initial residual = 0.00460621, Final residual = 4.0585e-05, No Iterations 10
time step continuity errors : sum local = 2.14607e-07, global = 5.56881e-08, cumulative = 1.24825e-06
PIMPLE: iteration 2
DILUPBiCG:  Solving for Ux, Initial residual = 0.00399886, Final residual = 2.31539e-05, No Iterations 1
DILUPBiCG:  Solving for Uy, Initial residual = 0.000679027, Final residual = 3.10186e-06, No Iterations 1
DILUPBiCG:  Solving for Uz, Initial residual = 0.00410366, Final residual = 1.13597e-05, No Iterations 1
GAMG:  Solving for p, Initial residual = 0.0610517, Final residual = 0.000322395, No Iterations 4
GAMG:  Solving for p, Initial residual = 0.0110814, Final residual = 0.000108126, No Iterations 7
GAMG:  Solving for p, Initial residual = 0.0049269, Final residual = 3.96155e-05, No Iterations 6
time step continuity errors : sum local = 1.81361e-07, global = 5.80348e-08, cumulative = 1.30629e-06
GAMG:  Solving for p, Initial residual = 0.0302094, Final residual = 0.000130818, No Iterations 4
GAMG:  Solving for p, Initial residual = 0.00529545, Final residual = 4.80227e-05, No Iterations 7
GAMG:  Solving for p, Initial residual = 0.0024026, Final residual = 2.33645e-05, No Iterations 5
time step continuity errors : sum local = 1.07315e-07, global = -3.49242e-08, cumulative = 1.27136e-06
PIMPLE: iteration 3
DILUPBiCG:  Solving for Ux, Initial residual = 0.0012524, Final residual = 2.50202e-07, No Iterations 2
DILUPBiCG:  Solving for Uy, Initial residual = 0.000210873, Final residual = 4.14953e-06, No Iterations 1
DILUPBiCG:  Solving for Uz, Initial residual = 0.00258686, Final residual = 5.63596e-07, No Iterations 2
GAMG:  Solving for p, Initial residual = 0.0498537, Final residual = 0.00039332, No Iterations 4
GAMG:  Solving for p, Initial residual = 0.0121485, Final residual = 0.000121275, No Iterations 10
GAMG:  Solving for p, Initial residual = 0.00561049, Final residual = 5.07145e-05, No Iterations 10
time step continuity errors : sum local = 2.51027e-07, global = -6.49189e-08, cumulative = 1.20645e-06
GAMG:  Solving for p, Initial residual = 0.00385096, Final residual = 3.84489e-05, No Iterations 10
GAMG:  Solving for p, Initial residual = 0.0021533, Final residual = 1.87939e-05, No Iterations 7
GAMG:  Solving for p, Initial residual = 0.000777321, Final residual = 9.85402e-07, No Iterations 36
time step continuity errors : sum local = 4.85632e-09, global = 1.43356e-09, cumulative = 1.20788e-06
DILUPBiCG:  Solving for omega, Initial residual = 0.000815541, Final residual = 1.23802e-06, No Iterations 1
DILUPBiCG:  Solving for k, Initial residual = 0.00468904, Final residual = 9.70656e-07, No Iterations 2
ExecutionTime = 27.88 s  ClockTime = 28 s

Courant Number mean: 0.273669 max: 0.6087
Time = 0.457

GAMG:  Solving for cellDisplacementx, Initial residual = 0, Final residual = 0, No Iterations 0
GAMG:  Solving for cellDisplacementy, Initial residual = 0, Final residual = 0, No Iterations 0
GAMG:  Solving for cellDisplacementz, Initial residual = 0, Final residual = 0, No Iterations 0
PIMPLE: iteration 1
DILUPBiCG:  Solving for Ux, Initial residual = 0.0142795, Final residual = 5.28863e-05, No Iterations 1
DILUPBiCG:  Solving for Uy, Initial residual = 0.00230793, Final residual = 5.64753e-06, No Iterations 1
DILUPBiCG:  Solving for Uz, Initial residual = 0.0136379, Final residual = 3.29859e-05, No Iterations 1
GAMG:  Solving for p, Initial residual = 0.147735, Final residual = 0.00134847, No Iterations 8
GAMG:  Solving for p, Initial residual = 0.0208245, Final residual = 0.000195999, No Iterations 16
GAMG:  Solving for p, Initial residual = 0.00804522, Final residual = 7.78782e-05, No Iterations 12
time step continuity errors : sum local = 4.69322e-07, global = 1.40661e-07, cumulative = 1.34854e-06
GAMG:  Solving for p, Initial residual = 0.0583078, Final residual = 0.000478304, No Iterations 6
GAMG:  Solving for p, Initial residual = 0.0101377, Final residual = 9.33645e-05, No Iterations 16
GAMG:  Solving for p, Initial residual = 0.00423013, Final residual = 4.16649e-05, No Iterations 10
time step continuity errors : sum local = 2.49518e-07, global = 6.4794e-08, cumulative = 1.41333e-06
PIMPLE: iteration 2
DILUPBiCG:  Solving for Ux, Initial residual = 0.00478046, Final residual = 2.23169e-05, No Iterations 1
DILUPBiCG:  Solving for Uy, Initial residual = 0.000805749, Final residual = 3.20304e-06, No Iterations 1
DILUPBiCG:  Solving for Uz, Initial residual = 0.00398809, Final residual = 1.08282e-05, No Iterations 1
GAMG:  Solving for p, Initial residual = 0.0595331, Final residual = 0.000281863, No Iterations 4
GAMG:  Solving for p, Initial residual = 0.010325, Final residual = 9.92715e-05, No Iterations 12
GAMG:  Solving for p, Initial residual = 0.00488545, Final residual = 4.37641e-05, No Iterations 8
time step continuity errors : sum local = 2.25321e-07, global = -8.35057e-08, cumulative = 1.32983e-06
GAMG:  Solving for p, Initial residual = 0.0295854, Final residual = 0.000284306, No Iterations 3
GAMG:  Solving for p, Initial residual = 0.00496155, Final residual = 3.89218e-05, No Iterations 6
GAMG:  Solving for p, Initial residual = 0.00235634, Final residual = 1.94998e-05, No Iterations 4
time step continuity errors : sum local = 1.00723e-07, global = 2.89651e-08, cumulative = 1.35879e-06
PIMPLE: iteration 3
DILUPBiCG:  Solving for Ux, Initial residual = 0.00143846, Final residual = 2.80292e-07, No Iterations 2
DILUPBiCG:  Solving for Uy, Initial residual = 0.00024007, Final residual = 4.7749e-06, No Iterations 1
DILUPBiCG:  Solving for Uz, Initial residual = 0.00305306, Final residual = 6.39931e-07, No Iterations 2
GAMG:  Solving for p, Initial residual = 0.0469295, Final residual = 0.000420034, No Iterations 4
GAMG:  Solving for p, Initial residual = 0.0113454, Final residual = 0.000110155, No Iterations 12
GAMG:  Solving for p, Initial residual = 0.00527183, Final residual = 4.41704e-05, No Iterations 10
time step continuity errors : sum local = 2.48118e-07, global = -6.41096e-08, cumulative = 1.29468e-06
GAMG:  Solving for p, Initial residual = 0.00357423, Final residual = 3.44007e-05, No Iterations 6
GAMG:  Solving for p, Initial residual = 0.00204467, Final residual = 1.99843e-05, No Iterations 4
GAMG:  Solving for p, Initial residual = 0.000739528, Final residual = 9.38052e-07, No Iterations 33
time step continuity errors : sum local = 5.25253e-09, global = 1.54999e-09, cumulative = 1.29623e-06
DILUPBiCG:  Solving for omega, Initial residual = 0.000771485, Final residual = 1.20223e-06, No Iterations 1
DILUPBiCG:  Solving for k, Initial residual = 0.00474059, Final residual = 9.34108e-07, No Iterations 2
ExecutionTime = 32.85 s  ClockTime = 33 s

Courant Number mean: 0.271391 max: 0.603789
Time = 0.458

GAMG:  Solving for cellDisplacementx, Initial residual = 0, Final residual = 0, No Iterations 0
GAMG:  Solving for cellDisplacementy, Initial residual = 0, Final residual = 0, No Iterations 0
GAMG:  Solving for cellDisplacementz, Initial residual = 0, Final residual = 0, No Iterations 0
PIMPLE: iteration 1
DILUPBiCG:  Solving for Ux, Initial residual = 0.0169179, Final residual = 6.4091e-05, No Iterations 1
DILUPBiCG:  Solving for Uy, Initial residual = 0.00271545, Final residual = 6.49459e-06, No Iterations 1
DILUPBiCG:  Solving for Uz, Initial residual = 0.0134074, Final residual = 3.22324e-05, No Iterations 1
GAMG:  Solving for p, Initial residual = 0.143374, Final residual = 0.00129758, No Iterations 8
GAMG:  Solving for p, Initial residual = 0.0192515, Final residual = 0.000190772, No Iterations 16
GAMG:  Solving for p, Initial residual = 0.00749686, Final residual = 6.33642e-05, No Iterations 14
time step continuity errors : sum local = 4.26484e-07, global = 1.33294e-07, cumulative = 1.42953e-06
GAMG:  Solving for p, Initial residual = 0.0570023, Final residual = 0.000463363, No Iterations 6
GAMG:  Solving for p, Initial residual = 0.00939865, Final residual = 9.07588e-05, No Iterations 16
GAMG:  Solving for p, Initial residual = 0.003961, Final residual = 3.38615e-05, No Iterations 12
time step continuity errors : sum local = 2.26533e-07, global = 6.68383e-08, cumulative = 1.49637e-06
PIMPLE: iteration 2
DILUPBiCG:  Solving for Ux, Initial residual = 0.0055545, Final residual = 2.37251e-05, No Iterations 1
DILUPBiCG:  Solving for Uy, Initial residual = 0.00093226, Final residual = 3.305e-06, No Iterations 1
DILUPBiCG:  Solving for Uz, Initial residual = 0.00390566, Final residual = 1.05201e-05, No Iterations 1
GAMG:  Solving for p, Initial residual = 0.0582677, Final residual = 0.000299571, No Iterations 4
GAMG:  Solving for p, Initial residual = 0.00986497, Final residual = 8.47375e-05, No Iterations 14
GAMG:  Solving for p, Initial residual = 0.00472459, Final residual = 4.43833e-05, No Iterations 7
time step continuity errors : sum local = 2.53835e-07, global = 8.97744e-08, cumulative = 1.58614e-06
GAMG:  Solving for p, Initial residual = 0.0290896, Final residual = 0.000126564, No Iterations 4
GAMG:  Solving for p, Initial residual = 0.00473974, Final residual = 4.63459e-05, No Iterations 11
GAMG:  Solving for p, Initial residual = 0.00221668, Final residual = 1.68872e-05, No Iterations 5
time step continuity errors : sum local = 9.69786e-08, global = -2.64515e-08, cumulative = 1.55969e-06
PIMPLE: iteration 3
DILUPBiCG:  Solving for Ux, Initial residual = 0.00162244, Final residual = 3.0059e-07, No Iterations 2
DILUPBiCG:  Solving for Uy, Initial residual = 0.000269554, Final residual = 5.33306e-06, No Iterations 1
DILUPBiCG:  Solving for Uz, Initial residual = 0.00349252, Final residual = 7.3825e-07, No Iterations 2
GAMG:  Solving for p, Initial residual = 0.0448663, Final residual = 0.000341318, No Iterations 5
GAMG:  Solving for p, Initial residual = 0.0108465, Final residual = 0.000107397, No Iterations 11
GAMG:  Solving for p, Initial residual = 0.0049805, Final residual = 4.66256e-05, No Iterations 10
time step continuity errors : sum local = 2.9309e-07, global = -7.61341e-08, cumulative = 1.48355e-06
GAMG:  Solving for p, Initial residual = 0.00335035, Final residual = 2.70736e-05, No Iterations 6
GAMG:  Solving for p, Initial residual = 0.00193293, Final residual = 1.49198e-05, No Iterations 4
GAMG:  Solving for p, Initial residual = 0.00070029, Final residual = 9.80867e-07, No Iterations 29
time step continuity errors : sum local = 6.15004e-09, global = 1.82664e-09, cumulative = 1.48538e-06
DILUPBiCG:  Solving for omega, Initial residual = 0.000729987, Final residual = 1.17312e-06, No Iterations 1
DILUPBiCG:  Solving for k, Initial residual = 0.00480099, Final residual = 9.38316e-07, No Iterations 2
ExecutionTime = 37.55 s  ClockTime = 37 s

Courant Number mean: 0.268784 max: 0.598116
Time = 0.459

GAMG:  Solving for cellDisplacementx, Initial residual = 0, Final residual = 0, No Iterations 0
GAMG:  Solving for cellDisplacementy, Initial residual = 0, Final residual = 0, No Iterations 0
GAMG:  Solving for cellDisplacementz, Initial residual = 0, Final residual = 0, No Iterations 0
PIMPLE: iteration 1
DILUPBiCG:  Solving for Ux, Initial residual = 0.0195453, Final residual = 7.55327e-05, No Iterations 1
DILUPBiCG:  Solving for Uy, Initial residual = 0.00312369, Final residual = 7.40534e-06, No Iterations 1
DILUPBiCG:  Solving for Uz, Initial residual = 0.0132466, Final residual = 3.18349e-05, No Iterations 1
GAMG:  Solving for p, Initial residual = 0.140053, Final residual = 0.00125421, No Iterations 8
GAMG:  Solving for p, Initial residual = 0.0180434, Final residual = 0.000159169, No Iterations 18
GAMG:  Solving for p, Initial residual = 0.00711879, Final residual = 6.24347e-05, No Iterations 12
time step continuity errors : sum local = 4.64606e-07, global = 1.38697e-07, cumulative = 1.62408e-06
GAMG:  Solving for p, Initial residual = 0.0560228, Final residual = 0.000451076, No Iterations 6
GAMG:  Solving for p, Initial residual = 0.00887199, Final residual = 7.58981e-05, No Iterations 18
GAMG:  Solving for p, Initial residual = 0.00378405, Final residual = 3.20625e-05, No Iterations 10
time step continuity errors : sum local = 2.37023e-07, global = 6.18154e-08, cumulative = 1.68589e-06
PIMPLE: iteration 2
DILUPBiCG:  Solving for Ux, Initial residual = 0.0063202, Final residual = 2.68903e-05, No Iterations 1
DILUPBiCG:  Solving for Uy, Initial residual = 0.00105854, Final residual = 3.42746e-06, No Iterations 1
DILUPBiCG:  Solving for Uz, Initial residual = 0.00385454, Final residual = 1.03803e-05, No Iterations 1
GAMG:  Solving for p, Initial residual = 0.0572836, Final residual = 0.000344534, No Iterations 4
GAMG:  Solving for p, Initial residual = 0.00952874, Final residual = 8.69324e-05, No Iterations 14
GAMG:  Solving for p, Initial residual = 0.00455356, Final residual = 4.04484e-05, No Iterations 8
time step continuity errors : sum local = 2.54485e-07, global = -9.06018e-08, cumulative = 1.59529e-06
GAMG:  Solving for p, Initial residual = 0.028708, Final residual = 0.000145693, No Iterations 4
GAMG:  Solving for p, Initial residual = 0.00457076, Final residual = 4.00336e-05, No Iterations 12
GAMG:  Solving for p, Initial residual = 0.00212049, Final residual = 1.75845e-05, No Iterations 8
time step continuity errors : sum local = 1.11139e-07, global = -3.81369e-08, cumulative = 1.55715e-06
PIMPLE: iteration 3
DILUPBiCG:  Solving for Ux, Initial residual = 0.0018061, Final residual = 3.30787e-07, No Iterations 2
DILUPBiCG:  Solving for Uy, Initial residual = 0.000299759, Final residual = 5.78887e-06, No Iterations 1
DILUPBiCG:  Solving for Uz, Initial residual = 0.00391644, Final residual = 8.43015e-07, No Iterations 2
GAMG:  Solving for p, Initial residual = 0.0434165, Final residual = 0.000339983, No Iterations 5
GAMG:  Solving for p, Initial residual = 0.0103742, Final residual = 9.50775e-05, No Iterations 13
GAMG:  Solving for p, Initial residual = 0.00479491, Final residual = 3.90725e-05, No Iterations 10
time step continuity errors : sum local = 2.71357e-07, global = -7.02701e-08, cumulative = 1.48688e-06
GAMG:  Solving for p, Initial residual = 0.00317627, Final residual = 3.13682e-05, No Iterations 14
GAMG:  Solving for p, Initial residual = 0.00182584, Final residual = 1.56862e-05, No Iterations 4
GAMG:  Solving for p, Initial residual = 0.00066876, Final residual = 9.76428e-07, No Iterations 38
time step continuity errors : sum local = 6.76669e-09, global = 2.00577e-09, cumulative = 1.48889e-06
DILUPBiCG:  Solving for omega, Initial residual = 0.000690964, Final residual = 1.15336e-06, No Iterations 1
DILUPBiCG:  Solving for k, Initial residual = 0.00485034, Final residual = 9.62427e-07, No Iterations 2
ExecutionTime = 42.7 s  ClockTime = 43 s

Courant Number mean: 0.26586 max: 0.591702
Time = 0.46

GAMG:  Solving for cellDisplacementx, Initial residual = 0, Final residual = 0, No Iterations 0
GAMG:  Solving for cellDisplacementy, Initial residual = 0, Final residual = 0, No Iterations 0
GAMG:  Solving for cellDisplacementz, Initial residual = 0, Final residual = 0, No Iterations 0
PIMPLE: iteration 1
DILUPBiCG:  Solving for Ux, Initial residual = 0.0221667, Final residual = 8.7098e-05, No Iterations 1
DILUPBiCG:  Solving for Uy, Initial residual = 0.00353449, Final residual = 8.35858e-06, No Iterations 1
DILUPBiCG:  Solving for Uz, Initial residual = 0.0131382, Final residual = 3.16063e-05, No Iterations 1
GAMG:  Solving for p, Initial residual = 0.137483, Final residual = 0.00121337, No Iterations 8
GAMG:  Solving for p, Initial residual = 0.0171273, Final residual = 0.000155474, No Iterations 18
GAMG:  Solving for p, Initial residual = 0.00681699, Final residual = 6.15757e-05, No Iterations 12
time step continuity errors : sum local = 5.00991e-07, global = 1.49775e-07, cumulative = 1.63866e-06
GAMG:  Solving for p, Initial residual = 0.0552985, Final residual = 0.000438785, No Iterations 6
GAMG:  Solving for p, Initial residual = 0.00846541, Final residual = 7.41913e-05, No Iterations 18
GAMG:  Solving for p, Initial residual = 0.00363792, Final residual = 3.2075e-05, No Iterations 10
time step continuity errors : sum local = 2.59344e-07, global = 6.76523e-08, cumulative = 1.70632e-06
PIMPLE: iteration 2
DILUPBiCG:  Solving for Ux, Initial residual = 0.00707653, Final residual = 3.10694e-05, No Iterations 1
DILUPBiCG:  Solving for Uy, Initial residual = 0.00118422, Final residual = 3.56813e-06, No Iterations 1
DILUPBiCG:  Solving for Uz, Initial residual = 0.00382114, Final residual = 1.03633e-05, No Iterations 1
GAMG:  Solving for p, Initial residual = 0.0565045, Final residual = 0.000375559, No Iterations 4
GAMG:  Solving for p, Initial residual = 0.00927377, Final residual = 8.95358e-05, No Iterations 14
GAMG:  Solving for p, Initial residual = 0.00439928, Final residual = 4.12123e-05, No Iterations 8
time step continuity errors : sum local = 2.82895e-07, global = -9.67535e-08, cumulative = 1.60956e-06
GAMG:  Solving for p, Initial residual = 0.0284008, Final residual = 0.000157741, No Iterations 4
GAMG:  Solving for p, Initial residual = 0.00444381, Final residual = 4.13292e-05, No Iterations 12
GAMG:  Solving for p, Initial residual = 0.00204017, Final residual = 1.82342e-05, No Iterations 8
time step continuity errors : sum local = 1.25764e-07, global = -4.1097e-08, cumulative = 1.56847e-06
PIMPLE: iteration 3
DILUPBiCG:  Solving for Ux, Initial residual = 0.0019836, Final residual = 4.67232e-07, No Iterations 2
DILUPBiCG:  Solving for Uy, Initial residual = 0.000328993, Final residual = 6.16533e-06, No Iterations 1
DILUPBiCG:  Solving for Uz, Initial residual = 0.00433819, Final residual = 9.55006e-07, No Iterations 2
GAMG:  Solving for p, Initial residual = 0.0423389, Final residual = 0.000341654, No Iterations 5
GAMG:  Solving for p, Initial residual = 0.0100183, Final residual = 9.76346e-05, No Iterations 13
GAMG:  Solving for p, Initial residual = 0.00465351, Final residual = 4.2403e-05, No Iterations 10
time step continuity errors : sum local = 3.22529e-07, global = -8.3881e-08, cumulative = 1.48459e-06
GAMG:  Solving for p, Initial residual = 0.0030426, Final residual = 2.61015e-05, No Iterations 16
GAMG:  Solving for p, Initial residual = 0.00174701, Final residual = 1.37118e-05, No Iterations 4
GAMG:  Solving for p, Initial residual = 0.000648022, Final residual = 9.84175e-07, No Iterations 36
time step continuity errors : sum local = 7.47083e-09, global = 2.20339e-09, cumulative = 1.48679e-06
DILUPBiCG:  Solving for omega, Initial residual = 0.000654401, Final residual = 1.14135e-06, No Iterations 1
DILUPBiCG:  Solving for k, Initial residual = 0.00490025, Final residual = 9.99228e-07, No Iterations 2
ExecutionTime = 47.73 s  ClockTime = 48 s

End

