/*---------------------------------------------------------------------------*\
| =========                 |                                                 |
| \\      /  F ield         | OpenFOAM: The Open Source CFD Toolbox           |
|  \\    /   O peration     | Version:  2.3.1                                 |
|   \\  /    A nd           | Web:      www.OpenFOAM.org                      |
|    \\/     M anipulation  |                                                 |
\*---------------------------------------------------------------------------*/
Build  : 2.3.1-262087cdf8db
Exec   : pimpleDyMFoam
Date   : Jun 04 2023
Time   : 16:58:57
Host   : "jcosson-VirtualBox"
PID    : 4803
Case   : /home/jcosson/workspace/henersj_shootingdata/calcs/moderate_deformed/primal/10_intervals_04-06-23/sweep7/interval7
nProcs : 1
sigFpe : Enabling floating point exception trapping (FOAM_SIGFPE).
fileModificationChecking : Monitoring run-time modified files using timeStampMaster
allowSystemOperations : Allowing user-supplied system call operations

// * * * * * * * * * * * * * * * * * * * * * * * * * * * * * * * * * * * * * //
Create time

Create mesh for time = 0.46

Selecting dynamicFvMesh dynamicMotionSolverFvMesh
Selecting motion solver: displacementLaplacian
Selecting motion diffusion: quadratic
Selecting motion diffusion: quadratic
Selecting motion diffusion: inverseDistance

PIMPLE: no residual control data found. Calculations will employ 3 corrector loops

Reading field p

Reading field U

Reading/calculating face flux field phi

Selecting incompressible transport model Newtonian
Selecting turbulence model type RASModel
Selecting RAS turbulence model kOmegaSST
kOmegaSSTCoeffs
{
    alphaK1         0.85034;
    alphaK2         1;
    alphaOmega1     0.5;
    alphaOmega2     0.85616;
    gamma1          0.5532;
    gamma2          0.4403;
    beta1           0.075;
    beta2           0.0828;
    betaStar        0.09;
    a1              0.31;
    c1              10;
    Cmu             0.09;
    b1              1;
    F3              false;
}

Reading/calculating face velocity Uf

No finite volume options present

Courant Number mean: 0.26263 max: 0.584575

Starting time loop

Courant Number mean: 0.26263 max: 0.584575
Time = 0.461

GAMG:  Solving for cellDisplacementx, Initial residual = 0, Final residual = 0, No Iterations 0
GAMG:  Solving for cellDisplacementy, Initial residual = 0, Final residual = 0, No Iterations 0
GAMG:  Solving for cellDisplacementz, Initial residual = 0, Final residual = 0, No Iterations 0
PIMPLE: iteration 1
DILUPBiCG:  Solving for Ux, Initial residual = 0.0247721, Final residual = 9.86863e-05, No Iterations 1
DILUPBiCG:  Solving for Uy, Initial residual = 0.00395643, Final residual = 9.38709e-06, No Iterations 1
DILUPBiCG:  Solving for Uz, Initial residual = 0.0139868, Final residual = 3.28656e-05, No Iterations 1
GAMG:  Solving for p, Initial residual = 0.155878, Final residual = 0.00133538, No Iterations 6
GAMG:  Solving for p, Initial residual = 0.0196106, Final residual = 0.000180143, No Iterations 18
GAMG:  Solving for p, Initial residual = 0.00802399, Final residual = 6.98618e-05, No Iterations 12
time step continuity errors : sum local = 6.15512e-07, global = 1.84847e-07, cumulative = 1.84847e-07
GAMG:  Solving for p, Initial residual = 0.0632627, Final residual = 0.0004274, No Iterations 6
GAMG:  Solving for p, Initial residual = 0.00976186, Final residual = 8.53408e-05, No Iterations 16
GAMG:  Solving for p, Initial residual = 0.00417075, Final residual = 4.09573e-05, No Iterations 10
time step continuity errors : sum local = 3.58962e-07, global = 9.38851e-08, cumulative = 2.78732e-07
PIMPLE: iteration 2
DILUPBiCG:  Solving for Ux, Initial residual = 0.00782013, Final residual = 3.58159e-05, No Iterations 1
DILUPBiCG:  Solving for Uy, Initial residual = 0.00130888, Final residual = 3.72683e-06, No Iterations 1
DILUPBiCG:  Solving for Uz, Initial residual = 0.00383259, Final residual = 1.0468e-05, No Iterations 1
GAMG:  Solving for p, Initial residual = 0.0649897, Final residual = 0.000393503, No Iterations 4
GAMG:  Solving for p, Initial residual = 0.0109254, Final residual = 9.13098e-05, No Iterations 14
GAMG:  Solving for p, Initial residual = 0.00502818, Final residual = 4.18212e-05, No Iterations 8
time step continuity errors : sum local = 3.10945e-07, global = -1.02729e-07, cumulative = 1.76003e-07
GAMG:  Solving for p, Initial residual = 0.0327903, Final residual = 0.000165863, No Iterations 4
GAMG:  Solving for p, Initial residual = 0.00533497, Final residual = 5.09029e-05, No Iterations 10
GAMG:  Solving for p, Initial residual = 0.00237173, Final residual = 2.18901e-05, No Iterations 8
time step continuity errors : sum local = 1.63604e-07, global = -4.99294e-08, cumulative = 1.26074e-07
PIMPLE: iteration 3
DILUPBiCG:  Solving for Ux, Initial residual = 0.00216109, Final residual = 1.4025e-06, No Iterations 2
DILUPBiCG:  Solving for Uy, Initial residual = 0.000359561, Final residual = 6.41802e-06, No Iterations 1
DILUPBiCG:  Solving for Uz, Initial residual = 0.00472956, Final residual = 1.07072e-06, No Iterations 2
GAMG:  Solving for p, Initial residual = 0.0435755, Final residual = 0.000340005, No Iterations 5
GAMG:  Solving for p, Initial residual = 0.010179, Final residual = 9.91013e-05, No Iterations 13
GAMG:  Solving for p, Initial residual = 0.00472495, Final residual = 4.47228e-05, No Iterations 10
time step continuity errors : sum local = 3.69451e-07, global = -9.6111e-08, cumulative = 2.99627e-08
GAMG:  Solving for p, Initial residual = 0.00307013, Final residual = 2.62095e-05, No Iterations 16
GAMG:  Solving for p, Initial residual = 0.00172426, Final residual = 1.35394e-05, No Iterations 4
GAMG:  Solving for p, Initial residual = 0.000651779, Final residual = 8.68387e-07, No Iterations 38
time step continuity errors : sum local = 7.15808e-09, global = 2.12081e-09, cumulative = 3.20835e-08
DILUPBiCG:  Solving for omega, Initial residual = 0.00062035, Final residual = 1.13928e-06, No Iterations 1
DILUPBiCG:  Solving for k, Initial residual = 0.00494705, Final residual = 1.05772e-06, No Iterations 2
ExecutionTime = 5.83 s  ClockTime = 6 s

Courant Number mean: 0.25911 max: 0.57677
Time = 0.462

GAMG:  Solving for cellDisplacementx, Initial residual = 0, Final residual = 0, No Iterations 0
GAMG:  Solving for cellDisplacementy, Initial residual = 0, Final residual = 0, No Iterations 0
GAMG:  Solving for cellDisplacementz, Initial residual = 0, Final residual = 0, No Iterations 0
PIMPLE: iteration 1
DILUPBiCG:  Solving for Ux, Initial residual = 0.027366, Final residual = 0.000110099, No Iterations 1
DILUPBiCG:  Solving for Uy, Initial residual = 0.0043581, Final residual = 1.03166e-05, No Iterations 1
DILUPBiCG:  Solving for Uz, Initial residual = 0.0129134, Final residual = 3.10772e-05, No Iterations 1
GAMG:  Solving for p, Initial residual = 0.133239, Final residual = 0.00131386, No Iterations 6
GAMG:  Solving for p, Initial residual = 0.01584, Final residual = 0.00014961, No Iterations 20
GAMG:  Solving for p, Initial residual = 0.00662688, Final residual = 5.74887e-05, No Iterations 12
time step continuity errors : sum local = 5.45997e-07, global = 1.63493e-07, cumulative = 1.95576e-07
GAMG:  Solving for p, Initial residual = 0.0541411, Final residual = 0.000417572, No Iterations 6
GAMG:  Solving for p, Initial residual = 0.00790382, Final residual = 7.13632e-05, No Iterations 18
GAMG:  Solving for p, Initial residual = 0.00343889, Final residual = 3.24153e-05, No Iterations 10
time step continuity errors : sum local = 3.0616e-07, global = 7.99396e-08, cumulative = 2.75516e-07
PIMPLE: iteration 2
DILUPBiCG:  Solving for Ux, Initial residual = 0.00855661, Final residual = 4.08118e-05, No Iterations 1
DILUPBiCG:  Solving for Uy, Initial residual = 0.0014333, Final residual = 3.90133e-06, No Iterations 1
DILUPBiCG:  Solving for Uz, Initial residual = 0.00379078, Final residual = 1.05536e-05, No Iterations 1
GAMG:  Solving for p, Initial residual = 0.055183, Final residual = 0.000414778, No Iterations 4
GAMG:  Solving for p, Initial residual = 0.0088962, Final residual = 7.89138e-05, No Iterations 16
GAMG:  Solving for p, Initial residual = 0.00421186, Final residual = 3.79559e-05, No Iterations 8
time step continuity errors : sum local = 3.03308e-07, global = -1.08069e-07, cumulative = 1.67447e-07
GAMG:  Solving for p, Initial residual = 0.0279012, Final residual = 0.000173478, No Iterations 4
GAMG:  Solving for p, Initial residual = 0.00425805, Final residual = 3.56361e-05, No Iterations 14
GAMG:  Solving for p, Initial residual = 0.00194283, Final residual = 1.6622e-05, No Iterations 8
time step continuity errors : sum local = 1.33572e-07, global = -4.35847e-08, cumulative = 1.23862e-07
PIMPLE: iteration 3
DILUPBiCG:  Solving for Ux, Initial residual = 0.00232583, Final residual = 1.41541e-08, No Iterations 3
DILUPBiCG:  Solving for Uy, Initial residual = 0.000386592, Final residual = 6.69628e-06, No Iterations 1
DILUPBiCG:  Solving for Uz, Initial residual = 0.00510733, Final residual = 1.19887e-06, No Iterations 2
GAMG:  Solving for p, Initial residual = 0.0409387, Final residual = 0.000338756, No Iterations 5
GAMG:  Solving for p, Initial residual = 0.00952555, Final residual = 8.5107e-05, No Iterations 15
GAMG:  Solving for p, Initial residual = 0.00448125, Final residual = 4.40208e-05, No Iterations 8
time step continuity errors : sum local = 3.91719e-07, global = -8.78626e-08, cumulative = 3.59996e-08
GAMG:  Solving for p, Initial residual = 0.00282581, Final residual = 2.70227e-05, No Iterations 18
GAMG:  Solving for p, Initial residual = 0.00162476, Final residual = 1.45619e-05, No Iterations 4
GAMG:  Solving for p, Initial residual = 0.000615004, Final residual = 9.61188e-07, No Iterations 38
time step continuity errors : sum local = 8.54039e-09, global = 2.53279e-09, cumulative = 3.85324e-08
DILUPBiCG:  Solving for omega, Initial residual = 0.000587935, Final residual = 1.14938e-06, No Iterations 1
DILUPBiCG:  Solving for k, Initial residual = 0.00497665, Final residual = 1.15114e-06, No Iterations 2
ExecutionTime = 10.37 s  ClockTime = 11 s

Courant Number mean: 0.255314 max: 0.568318
Time = 0.463

GAMG:  Solving for cellDisplacementx, Initial residual = 0, Final residual = 0, No Iterations 0
GAMG:  Solving for cellDisplacementy, Initial residual = 0, Final residual = 0, No Iterations 0
GAMG:  Solving for cellDisplacementz, Initial residual = 0, Final residual = 0, No Iterations 0
PIMPLE: iteration 1
DILUPBiCG:  Solving for Ux, Initial residual = 0.0299417, Final residual = 0.000121388, No Iterations 1
DILUPBiCG:  Solving for Uy, Initial residual = 0.00477208, Final residual = 1.13073e-05, No Iterations 1
DILUPBiCG:  Solving for Uz, Initial residual = 0.0128353, Final residual = 3.09473e-05, No Iterations 1
GAMG:  Solving for p, Initial residual = 0.131397, Final residual = 0.00127461, No Iterations 6
GAMG:  Solving for p, Initial residual = 0.0153587, Final residual = 0.000146506, No Iterations 20
GAMG:  Solving for p, Initial residual = 0.00647741, Final residual = 5.6822e-05, No Iterations 12
time step continuity errors : sum local = 5.76958e-07, global = 1.72937e-07, cumulative = 2.1147e-07
GAMG:  Solving for p, Initial residual = 0.0536553, Final residual = 0.000407519, No Iterations 6
GAMG:  Solving for p, Initial residual = 0.00768998, Final residual = 6.99248e-05, No Iterations 18
GAMG:  Solving for p, Initial residual = 0.00336335, Final residual = 3.22955e-05, No Iterations 10
time step continuity errors : sum local = 3.26261e-07, global = 8.52571e-08, cumulative = 2.96727e-07
PIMPLE: iteration 2
DILUPBiCG:  Solving for Ux, Initial residual = 0.00927942, Final residual = 4.58575e-05, No Iterations 1
DILUPBiCG:  Solving for Uy, Initial residual = 0.00155679, Final residual = 4.08998e-06, No Iterations 1
DILUPBiCG:  Solving for Uz, Initial residual = 0.00378234, Final residual = 1.07264e-05, No Iterations 1
GAMG:  Solving for p, Initial residual = 0.0545837, Final residual = 0.000428409, No Iterations 4
GAMG:  Solving for p, Initial residual = 0.00873588, Final residual = 8.02261e-05, No Iterations 16
GAMG:  Solving for p, Initial residual = 0.0041272, Final residual = 3.80802e-05, No Iterations 8
time step continuity errors : sum local = 3.25323e-07, global = -1.13189e-07, cumulative = 1.83538e-07
GAMG:  Solving for p, Initial residual = 0.0276708, Final residual = 0.000179882, No Iterations 4
GAMG:  Solving for p, Initial residual = 0.00418219, Final residual = 3.62038e-05, No Iterations 14
GAMG:  Solving for p, Initial residual = 0.00189901, Final residual = 1.6925e-05, No Iterations 8
time step continuity errors : sum local = 1.45413e-07, global = -4.6088e-08, cumulative = 1.3745e-07
PIMPLE: iteration 3
DILUPBiCG:  Solving for Ux, Initial residual = 0.00249035, Final residual = 1.41729e-06, No Iterations 2
DILUPBiCG:  Solving for Uy, Initial residual = 0.000414775, Final residual = 6.86744e-06, No Iterations 1
DILUPBiCG:  Solving for Uz, Initial residual = 0.0054613, Final residual = 1.33482e-06, No Iterations 2
GAMG:  Solving for p, Initial residual = 0.040493, Final residual = 0.000336341, No Iterations 5
GAMG:  Solving for p, Initial residual = 0.00937314, Final residual = 8.51682e-05, No Iterations 15
GAMG:  Solving for p, Initial residual = 0.00443468, Final residual = 3.62039e-05, No Iterations 10
time step continuity errors : sum local = 3.45013e-07, global = -8.94884e-08, cumulative = 4.79612e-08
GAMG:  Solving for p, Initial residual = 0.00275342, Final residual = 2.49587e-05, No Iterations 20
GAMG:  Solving for p, Initial residual = 0.00159187, Final residual = 1.358e-05, No Iterations 4
GAMG:  Solving for p, Initial residual = 0.000601105, Final residual = 8.8215e-07, No Iterations 38
time step continuity errors : sum local = 8.39413e-09, global = 2.48738e-09, cumulative = 5.04485e-08
DILUPBiCG:  Solving for omega, Initial residual = 0.000556952, Final residual = 1.17259e-06, No Iterations 1
DILUPBiCG:  Solving for k, Initial residual = 0.00498793, Final residual = 1.25933e-06, No Iterations 2
ExecutionTime = 14.6 s  ClockTime = 15 s

Courant Number mean: 0.251258 max: 0.559256
Time = 0.464

GAMG:  Solving for cellDisplacementx, Initial residual = 0, Final residual = 0, No Iterations 0
GAMG:  Solving for cellDisplacementy, Initial residual = 0, Final residual = 0, No Iterations 0
GAMG:  Solving for cellDisplacementz, Initial residual = 0, Final residual = 0, No Iterations 0
PIMPLE: iteration 1
DILUPBiCG:  Solving for Ux, Initial residual = 0.0324995, Final residual = 0.000132482, No Iterations 1
DILUPBiCG:  Solving for Uy, Initial residual = 0.00518716, Final residual = 1.22987e-05, No Iterations 1
DILUPBiCG:  Solving for Uz, Initial residual = 0.0127447, Final residual = 3.0732e-05, No Iterations 1
GAMG:  Solving for p, Initial residual = 0.129735, Final residual = 0.00123691, No Iterations 6
GAMG:  Solving for p, Initial residual = 0.0149736, Final residual = 0.000143573, No Iterations 20
GAMG:  Solving for p, Initial residual = 0.00636276, Final residual = 5.61506e-05, No Iterations 12
time step continuity errors : sum local = 6.05731e-07, global = 1.81738e-07, cumulative = 2.32187e-07
GAMG:  Solving for p, Initial residual = 0.0532411, Final residual = 0.000397838, No Iterations 6
GAMG:  Solving for p, Initial residual = 0.00752106, Final residual = 6.85945e-05, No Iterations 18
GAMG:  Solving for p, Initial residual = 0.0033064, Final residual = 3.23644e-05, No Iterations 10
time step continuity errors : sum local = 3.47529e-07, global = 9.11353e-08, cumulative = 3.23322e-07
PIMPLE: iteration 2
DILUPBiCG:  Solving for Ux, Initial residual = 0.00998873, Final residual = 5.08337e-05, No Iterations 1
DILUPBiCG:  Solving for Uy, Initial residual = 0.00167927, Final residual = 4.28938e-06, No Iterations 1
DILUPBiCG:  Solving for Uz, Initial residual = 0.00377735, Final residual = 1.0919e-05, No Iterations 1
GAMG:  Solving for p, Initial residual = 0.0540547, Final residual = 0.000439423, No Iterations 4
GAMG:  Solving for p, Initial residual = 0.00858937, Final residual = 8.12096e-05, No Iterations 16
GAMG:  Solving for p, Initial residual = 0.00404397, Final residual = 3.81761e-05, No Iterations 8
time step continuity errors : sum local = 3.46615e-07, global = -1.17998e-07, cumulative = 2.05324e-07
GAMG:  Solving for p, Initial residual = 0.0274538, Final residual = 0.00018524, No Iterations 4
GAMG:  Solving for p, Initial residual = 0.00411289, Final residual = 3.66407e-05, No Iterations 14
GAMG:  Solving for p, Initial residual = 0.00185701, Final residual = 1.71859e-05, No Iterations 8
time step continuity errors : sum local = 1.56933e-07, global = -4.85769e-08, cumulative = 1.56747e-07
PIMPLE: iteration 3
DILUPBiCG:  Solving for Ux, Initial residual = 0.00264961, Final residual = 9.33453e-07, No Iterations 2
DILUPBiCG:  Solving for Uy, Initial residual = 0.000442418, Final residual = 6.98612e-06, No Iterations 1
DILUPBiCG:  Solving for Uz, Initial residual = 0.00578233, Final residual = 1.48358e-06, No Iterations 2
GAMG:  Solving for p, Initial residual = 0.0401585, Final residual = 0.000333208, No Iterations 5
GAMG:  Solving for p, Initial residual = 0.00924692, Final residual = 8.4713e-05, No Iterations 15
GAMG:  Solving for p, Initial residual = 0.0043915, Final residual = 3.65552e-05, No Iterations 10
time step continuity errors : sum local = 3.70736e-07, global = -9.63465e-08, cumulative = 6.04004e-08
GAMG:  Solving for p, Initial residual = 0.00268506, Final residual = 2.46501e-05, No Iterations 20
GAMG:  Solving for p, Initial residual = 0.00154549, Final residual = 1.37513e-05, No Iterations 4
GAMG:  Solving for p, Initial residual = 0.000587351, Final residual = 8.97695e-07, No Iterations 38
time step continuity errors : sum local = 9.08827e-09, global = 2.69307e-09, cumulative = 6.30935e-08
DILUPBiCG:  Solving for omega, Initial residual = 0.000527971, Final residual = 1.19434e-06, No Iterations 1
DILUPBiCG:  Solving for k, Initial residual = 0.00498828, Final residual = 1.36188e-06, No Iterations 2
ExecutionTime = 18.97 s  ClockTime = 19 s

Courant Number mean: 0.246959 max: 0.549619
Time = 0.465

GAMG:  Solving for cellDisplacementx, Initial residual = 0, Final residual = 0, No Iterations 0
GAMG:  Solving for cellDisplacementy, Initial residual = 0, Final residual = 0, No Iterations 0
GAMG:  Solving for cellDisplacementz, Initial residual = 0, Final residual = 0, No Iterations 0
PIMPLE: iteration 1
DILUPBiCG:  Solving for Ux, Initial residual = 0.0350267, Final residual = 0.000143357, No Iterations 1
DILUPBiCG:  Solving for Uy, Initial residual = 0.00560133, Final residual = 1.32809e-05, No Iterations 1
DILUPBiCG:  Solving for Uz, Initial residual = 0.0126479, Final residual = 3.03989e-05, No Iterations 1
GAMG:  Solving for p, Initial residual = 0.128192, Final residual = 0.00120173, No Iterations 6
GAMG:  Solving for p, Initial residual = 0.0146348, Final residual = 0.000140723, No Iterations 20
GAMG:  Solving for p, Initial residual = 0.00625266, Final residual = 5.52519e-05, No Iterations 12
time step continuity errors : sum local = 6.29593e-07, global = 1.89008e-07, cumulative = 2.52101e-07
GAMG:  Solving for p, Initial residual = 0.052846, Final residual = 0.000388609, No Iterations 6
GAMG:  Solving for p, Initial residual = 0.00735973, Final residual = 6.73014e-05, No Iterations 18
GAMG:  Solving for p, Initial residual = 0.0032512, Final residual = 3.18916e-05, No Iterations 10
time step continuity errors : sum local = 3.61903e-07, global = 9.47938e-08, cumulative = 3.46895e-07
PIMPLE: iteration 2
DILUPBiCG:  Solving for Ux, Initial residual = 0.0106831, Final residual = 5.56996e-05, No Iterations 1
DILUPBiCG:  Solving for Uy, Initial residual = 0.0018005, Final residual = 4.49705e-06, No Iterations 1
DILUPBiCG:  Solving for Uz, Initial residual = 0.00376832, Final residual = 1.1116e-05, No Iterations 1
GAMG:  Solving for p, Initial residual = 0.0535425, Final residual = 0.00044805, No Iterations 4
GAMG:  Solving for p, Initial residual = 0.00844964, Final residual = 8.21096e-05, No Iterations 16
GAMG:  Solving for p, Initial residual = 0.00397292, Final residual = 3.84382e-05, No Iterations 8
time step continuity errors : sum local = 3.68912e-07, global = -1.2327e-07, cumulative = 2.23625e-07
GAMG:  Solving for p, Initial residual = 0.0272422, Final residual = 0.000189669, No Iterations 4
GAMG:  Solving for p, Initial residual = 0.00406244, Final residual = 3.70954e-05, No Iterations 14
GAMG:  Solving for p, Initial residual = 0.00182356, Final residual = 1.74895e-05, No Iterations 8
time step continuity errors : sum local = 1.68824e-07, global = -5.13571e-08, cumulative = 1.72267e-07
PIMPLE: iteration 3
DILUPBiCG:  Solving for Ux, Initial residual = 0.00280398, Final residual = 8.76259e-07, No Iterations 2
DILUPBiCG:  Solving for Uy, Initial residual = 0.000469641, Final residual = 7.0611e-06, No Iterations 1
DILUPBiCG:  Solving for Uz, Initial residual = 0.00607313, Final residual = 1.6439e-06, No Iterations 2
GAMG:  Solving for p, Initial residual = 0.0399148, Final residual = 0.000332003, No Iterations 5
GAMG:  Solving for p, Initial residual = 0.00914069, Final residual = 8.46062e-05, No Iterations 15
GAMG:  Solving for p, Initial residual = 0.00437135, Final residual = 3.74434e-05, No Iterations 10
time step continuity errors : sum local = 4.01835e-07, global = -1.04658e-07, cumulative = 6.76096e-08
GAMG:  Solving for p, Initial residual = 0.00262876, Final residual = 2.40958e-05, No Iterations 20
GAMG:  Solving for p, Initial residual = 0.00150692, Final residual = 1.34113e-05, No Iterations 4
GAMG:  Solving for p, Initial residual = 0.000577053, Final residual = 8.7738e-07, No Iterations 38
time step continuity errors : sum local = 9.39645e-09, global = 2.78337e-09, cumulative = 7.0393e-08
DILUPBiCG:  Solving for omega, Initial residual = 0.000502811, Final residual = 1.17188e-06, No Iterations 1
DILUPBiCG:  Solving for k, Initial residual = 0.00498628, Final residual = 1.44784e-06, No Iterations 2
ExecutionTime = 23.35 s  ClockTime = 24 s

Courant Number mean: 0.242434 max: 0.539448
Time = 0.466

GAMG:  Solving for cellDisplacementx, Initial residual = 0, Final residual = 0, No Iterations 0
GAMG:  Solving for cellDisplacementy, Initial residual = 0, Final residual = 0, No Iterations 0
GAMG:  Solving for cellDisplacementz, Initial residual = 0, Final residual = 0, No Iterations 0
PIMPLE: iteration 1
DILUPBiCG:  Solving for Ux, Initial residual = 0.0375234, Final residual = 0.000154002, No Iterations 1
DILUPBiCG:  Solving for Uy, Initial residual = 0.0060152, Final residual = 1.42528e-05, No Iterations 1
DILUPBiCG:  Solving for Uz, Initial residual = 0.0125169, Final residual = 2.99436e-05, No Iterations 1
GAMG:  Solving for p, Initial residual = 0.126748, Final residual = 0.00116898, No Iterations 6
GAMG:  Solving for p, Initial residual = 0.0143373, Final residual = 0.000138063, No Iterations 20
GAMG:  Solving for p, Initial residual = 0.00616421, Final residual = 5.44155e-05, No Iterations 12
time step continuity errors : sum local = 6.51498e-07, global = 1.95649e-07, cumulative = 2.66042e-07
GAMG:  Solving for p, Initial residual = 0.0524674, Final residual = 0.000380201, No Iterations 6
GAMG:  Solving for p, Initial residual = 0.00722758, Final residual = 6.60955e-05, No Iterations 18
GAMG:  Solving for p, Initial residual = 0.00320958, Final residual = 3.14559e-05, No Iterations 10
time step continuity errors : sum local = 3.7523e-07, global = 9.81433e-08, cumulative = 3.64185e-07
PIMPLE: iteration 2
DILUPBiCG:  Solving for Ux, Initial residual = 0.0113605, Final residual = 6.04235e-05, No Iterations 1
DILUPBiCG:  Solving for Uy, Initial residual = 0.00192029, Final residual = 4.70997e-06, No Iterations 1
DILUPBiCG:  Solving for Uz, Initial residual = 0.00375562, Final residual = 1.13021e-05, No Iterations 1
GAMG:  Solving for p, Initial residual = 0.0530469, Final residual = 0.000454993, No Iterations 4
GAMG:  Solving for p, Initial residual = 0.00833035, Final residual = 8.26819e-05, No Iterations 16
GAMG:  Solving for p, Initial residual = 0.00390874, Final residual = 3.85747e-05, No Iterations 8
time step continuity errors : sum local = 3.89333e-07, global = -1.27457e-07, cumulative = 2.36729e-07
GAMG:  Solving for p, Initial residual = 0.0270391, Final residual = 0.000193385, No Iterations 4
GAMG:  Solving for p, Initial residual = 0.00402146, Final residual = 3.74128e-05, No Iterations 14
GAMG:  Solving for p, Initial residual = 0.00178993, Final residual = 1.77304e-05, No Iterations 8
time step continuity errors : sum local = 1.79985e-07, global = -5.37908e-08, cumulative = 1.82938e-07
PIMPLE: iteration 3
DILUPBiCG:  Solving for Ux, Initial residual = 0.00295237, Final residual = 9.37064e-07, No Iterations 2
DILUPBiCG:  Solving for Uy, Initial residual = 0.000496242, Final residual = 7.09372e-06, No Iterations 1
DILUPBiCG:  Solving for Uz, Initial residual = 0.0063235, Final residual = 1.81368e-06, No Iterations 2
GAMG:  Solving for p, Initial residual = 0.0397294, Final residual = 0.000328908, No Iterations 5
GAMG:  Solving for p, Initial residual = 0.00906566, Final residual = 8.34763e-05, No Iterations 15
GAMG:  Solving for p, Initial residual = 0.00435512, Final residual = 3.72863e-05, No Iterations 10
time step continuity errors : sum local = 4.21172e-07, global = -1.09718e-07, cumulative = 7.32193e-08
GAMG:  Solving for p, Initial residual = 0.00258277, Final residual = 2.38247e-05, No Iterations 20
GAMG:  Solving for p, Initial residual = 0.00147454, Final residual = 1.32376e-05, No Iterations 4
GAMG:  Solving for p, Initial residual = 0.000569035, Final residual = 8.64577e-07, No Iterations 38
time step continuity errors : sum local = 9.74308e-09, global = 2.88501e-09, cumulative = 7.61043e-08
DILUPBiCG:  Solving for omega, Initial residual = 0.000484587, Final residual = 1.04554e-06, No Iterations 1
DILUPBiCG:  Solving for k, Initial residual = 0.00496701, Final residual = 1.51039e-06, No Iterations 2
ExecutionTime = 27.65 s  ClockTime = 28 s

Courant Number mean: 0.237701 max: 0.528782
Time = 0.467

GAMG:  Solving for cellDisplacementx, Initial residual = 0, Final residual = 0, No Iterations 0
GAMG:  Solving for cellDisplacementy, Initial residual = 0, Final residual = 0, No Iterations 0
GAMG:  Solving for cellDisplacementz, Initial residual = 0, Final residual = 0, No Iterations 0
PIMPLE: iteration 1
DILUPBiCG:  Solving for Ux, Initial residual = 0.0399812, Final residual = 0.00016438, No Iterations 1
DILUPBiCG:  Solving for Uy, Initial residual = 0.00642817, Final residual = 1.52105e-05, No Iterations 1
DILUPBiCG:  Solving for Uz, Initial residual = 0.0123907, Final residual = 2.95325e-05, No Iterations 1
GAMG:  Solving for p, Initial residual = 0.125374, Final residual = 0.0011373, No Iterations 6
GAMG:  Solving for p, Initial residual = 0.0140583, Final residual = 0.000135504, No Iterations 20
GAMG:  Solving for p, Initial residual = 0.00608462, Final residual = 5.35818e-05, No Iterations 12
time step continuity errors : sum local = 6.7065e-07, global = 2.01473e-07, cumulative = 2.77578e-07
GAMG:  Solving for p, Initial residual = 0.0521075, Final residual = 0.000371979, No Iterations 6
GAMG:  Solving for p, Initial residual = 0.0071011, Final residual = 6.49534e-05, No Iterations 18
GAMG:  Solving for p, Initial residual = 0.00316786, Final residual = 3.10355e-05, No Iterations 10
time step continuity errors : sum local = 3.87205e-07, global = 1.01165e-07, cumulative = 3.78743e-07
PIMPLE: iteration 2
DILUPBiCG:  Solving for Ux, Initial residual = 0.0120193, Final residual = 6.49959e-05, No Iterations 1
DILUPBiCG:  Solving for Uy, Initial residual = 0.00203841, Final residual = 4.92588e-06, No Iterations 1
DILUPBiCG:  Solving for Uz, Initial residual = 0.00373928, Final residual = 1.1457e-05, No Iterations 1
GAMG:  Solving for p, Initial residual = 0.0525774, Final residual = 0.000460586, No Iterations 4
GAMG:  Solving for p, Initial residual = 0.00823354, Final residual = 7.18234e-05, No Iterations 18
GAMG:  Solving for p, Initial residual = 0.00387715, Final residual = 3.77568e-05, No Iterations 7
time step continuity errors : sum local = 3.98515e-07, global = 1.45703e-07, cumulative = 5.24446e-07
GAMG:  Solving for p, Initial residual = 0.026863, Final residual = 0.00019386, No Iterations 4
GAMG:  Solving for p, Initial residual = 0.0039776, Final residual = 3.76827e-05, No Iterations 14
GAMG:  Solving for p, Initial residual = 0.0017688, Final residual = 1.60766e-05, No Iterations 10
time step continuity errors : sum local = 1.7081e-07, global = -4.63464e-08, cumulative = 4.78099e-07
PIMPLE: iteration 3
DILUPBiCG:  Solving for Ux, Initial residual = 0.00309435, Final residual = 1.04276e-06, No Iterations 2
DILUPBiCG:  Solving for Uy, Initial residual = 0.00052187, Final residual = 7.09976e-06, No Iterations 1
DILUPBiCG:  Solving for Uz, Initial residual = 0.00654985, Final residual = 1.99087e-06, No Iterations 2
GAMG:  Solving for p, Initial residual = 0.0396083, Final residual = 0.000327202, No Iterations 5
GAMG:  Solving for p, Initial residual = 0.00899819, Final residual = 8.26981e-05, No Iterations 15
GAMG:  Solving for p, Initial residual = 0.004337, Final residual = 3.72949e-05, No Iterations 10
time step continuity errors : sum local = 4.41218e-07, global = -1.14957e-07, cumulative = 3.63142e-07
GAMG:  Solving for p, Initial residual = 0.00253825, Final residual = 2.33799e-05, No Iterations 20
GAMG:  Solving for p, Initial residual = 0.00144248, Final residual = 1.29522e-05, No Iterations 4
GAMG:  Solving for p, Initial residual = 0.000560982, Final residual = 9.85863e-07, No Iterations 36
time step continuity errors : sum local = 1.16321e-08, global = 3.42871e-09, cumulative = 3.66571e-07
DILUPBiCG:  Solving for omega, Initial residual = 0.000474451, Final residual = 8.68446e-07, No Iterations 1
DILUPBiCG:  Solving for k, Initial residual = 0.00493021, Final residual = 1.55155e-06, No Iterations 2
ExecutionTime = 31.99 s  ClockTime = 32 s

Courant Number mean: 0.23278 max: 0.517663
Time = 0.468

GAMG:  Solving for cellDisplacementx, Initial residual = 0, Final residual = 0, No Iterations 0
GAMG:  Solving for cellDisplacementy, Initial residual = 0, Final residual = 0, No Iterations 0
GAMG:  Solving for cellDisplacementz, Initial residual = 0, Final residual = 0, No Iterations 0
PIMPLE: iteration 1
DILUPBiCG:  Solving for Ux, Initial residual = 0.0423948, Final residual = 0.000174477, No Iterations 1
DILUPBiCG:  Solving for Uy, Initial residual = 0.00683927, Final residual = 1.61494e-05, No Iterations 1
DILUPBiCG:  Solving for Uz, Initial residual = 0.0122349, Final residual = 2.88896e-05, No Iterations 1
GAMG:  Solving for p, Initial residual = 0.124035, Final residual = 0.00110713, No Iterations 6
GAMG:  Solving for p, Initial residual = 0.0137976, Final residual = 0.000133124, No Iterations 20
GAMG:  Solving for p, Initial residual = 0.00600856, Final residual = 5.28618e-05, No Iterations 12
time step continuity errors : sum local = 6.8836e-07, global = 2.06901e-07, cumulative = 5.73472e-07
GAMG:  Solving for p, Initial residual = 0.0517518, Final residual = 0.000364144, No Iterations 6
GAMG:  Solving for p, Initial residual = 0.00698115, Final residual = 6.39326e-05, No Iterations 18
GAMG:  Solving for p, Initial residual = 0.00312895, Final residual = 3.1002e-05, No Iterations 10
time step continuity errors : sum local = 4.02579e-07, global = 1.05706e-07, cumulative = 6.79178e-07
PIMPLE: iteration 2
DILUPBiCG:  Solving for Ux, Initial residual = 0.0126569, Final residual = 6.9426e-05, No Iterations 1
DILUPBiCG:  Solving for Uy, Initial residual = 0.00215456, Final residual = 5.14264e-06, No Iterations 1
DILUPBiCG:  Solving for Uz, Initial residual = 0.00371866, Final residual = 1.15929e-05, No Iterations 1
GAMG:  Solving for p, Initial residual = 0.052116, Final residual = 0.000464767, No Iterations 4
GAMG:  Solving for p, Initial residual = 0.0081488, Final residual = 7.20878e-05, No Iterations 18
GAMG:  Solving for p, Initial residual = 0.00381944, Final residual = 3.42857e-05, No Iterations 8
time step continuity errors : sum local = 3.76999e-07, global = -1.35487e-07, cumulative = 5.43691e-07
GAMG:  Solving for p, Initial residual = 0.0266565, Final residual = 0.000197983, No Iterations 4
GAMG:  Solving for p, Initial residual = 0.00395402, Final residual = 3.78914e-05, No Iterations 14
GAMG:  Solving for p, Initial residual = 0.00174074, Final residual = 1.61795e-05, No Iterations 10
time step continuity errors : sum local = 1.79075e-07, global = -4.82726e-08, cumulative = 4.95418e-07
PIMPLE: iteration 3
DILUPBiCG:  Solving for Ux, Initial residual = 0.00322976, Final residual = 1.18378e-06, No Iterations 2
DILUPBiCG:  Solving for Uy, Initial residual = 0.000547423, Final residual = 7.06286e-06, No Iterations 1
DILUPBiCG:  Solving for Uz, Initial residual = 0.00673069, Final residual = 2.16697e-06, No Iterations 2
GAMG:  Solving for p, Initial residual = 0.0395319, Final residual = 0.000325516, No Iterations 5
GAMG:  Solving for p, Initial residual = 0.00894716, Final residual = 8.1641e-05, No Iterations 15
GAMG:  Solving for p, Initial residual = 0.00432305, Final residual = 3.71326e-05, No Iterations 10
time step continuity errors : sum local = 4.57933e-07, global = -1.19324e-07, cumulative = 3.76094e-07
GAMG:  Solving for p, Initial residual = 0.00249893, Final residual = 2.29714e-05, No Iterations 20
GAMG:  Solving for p, Initial residual = 0.00141377, Final residual = 1.26945e-05, No Iterations 4
GAMG:  Solving for p, Initial residual = 0.000552371, Final residual = 9.60064e-07, No Iterations 36
time step continuity errors : sum local = 1.18045e-08, global = 3.47777e-09, cumulative = 3.79572e-07
DILUPBiCG:  Solving for omega, Initial residual = 0.000471398, Final residual = 7.39187e-07, No Iterations 1
DILUPBiCG:  Solving for k, Initial residual = 0.00487672, Final residual = 1.57805e-06, No Iterations 2
ExecutionTime = 36.35 s  ClockTime = 37 s

Courant Number mean: 0.227688 max: 0.506143
Time = 0.469

GAMG:  Solving for cellDisplacementx, Initial residual = 0, Final residual = 0, No Iterations 0
GAMG:  Solving for cellDisplacementy, Initial residual = 0, Final residual = 0, No Iterations 0
GAMG:  Solving for cellDisplacementz, Initial residual = 0, Final residual = 0, No Iterations 0
PIMPLE: iteration 1
DILUPBiCG:  Solving for Ux, Initial residual = 0.0447544, Final residual = 0.000184256, No Iterations 1
DILUPBiCG:  Solving for Uy, Initial residual = 0.0072484, Final residual = 1.70694e-05, No Iterations 1
DILUPBiCG:  Solving for Uz, Initial residual = 0.0120801, Final residual = 2.83341e-05, No Iterations 1
GAMG:  Solving for p, Initial residual = 0.122774, Final residual = 0.00107845, No Iterations 6
GAMG:  Solving for p, Initial residual = 0.0135679, Final residual = 0.000130783, No Iterations 20
GAMG:  Solving for p, Initial residual = 0.0059439, Final residual = 5.2063e-05, No Iterations 12
time step continuity errors : sum local = 7.02198e-07, global = 2.11087e-07, cumulative = 5.90659e-07
GAMG:  Solving for p, Initial residual = 0.0514179, Final residual = 0.000356741, No Iterations 6
GAMG:  Solving for p, Initial residual = 0.00687778, Final residual = 6.28635e-05, No Iterations 18
GAMG:  Solving for p, Initial residual = 0.00309684, Final residual = 3.06212e-05, No Iterations 10
time step continuity errors : sum local = 4.12025e-07, global = 1.08289e-07, cumulative = 6.98948e-07
PIMPLE: iteration 2
DILUPBiCG:  Solving for Ux, Initial residual = 0.0132717, Final residual = 7.37045e-05, No Iterations 1
DILUPBiCG:  Solving for Uy, Initial residual = 0.00226867, Final residual = 5.35853e-06, No Iterations 1
DILUPBiCG:  Solving for Uz, Initial residual = 0.00368905, Final residual = 1.16864e-05, No Iterations 1
GAMG:  Solving for p, Initial residual = 0.0516795, Final residual = 0.000468267, No Iterations 4
GAMG:  Solving for p, Initial residual = 0.00806778, Final residual = 7.23638e-05, No Iterations 18
GAMG:  Solving for p, Initial residual = 0.00377026, Final residual = 3.41682e-05, No Iterations 8
time step continuity errors : sum local = 3.89716e-07, global = -1.38174e-07, cumulative = 5.60775e-07
GAMG:  Solving for p, Initial residual = 0.0264687, Final residual = 0.000200324, No Iterations 4
GAMG:  Solving for p, Initial residual = 0.00393017, Final residual = 3.81681e-05, No Iterations 14
GAMG:  Solving for p, Initial residual = 0.00171867, Final residual = 1.6362e-05, No Iterations 10
time step continuity errors : sum local = 1.8784e-07, global = -5.03368e-08, cumulative = 5.10438e-07
PIMPLE: iteration 3
DILUPBiCG:  Solving for Ux, Initial residual = 0.00335807, Final residual = 1.33076e-06, No Iterations 2
DILUPBiCG:  Solving for Uy, Initial residual = 0.000572054, Final residual = 7.01046e-06, No Iterations 1
DILUPBiCG:  Solving for Uz, Initial residual = 0.0068903, Final residual = 2.34902e-06, No Iterations 2
GAMG:  Solving for p, Initial residual = 0.0394861, Final residual = 0.000325199, No Iterations 5
GAMG:  Solving for p, Initial residual = 0.0089114, Final residual = 8.00045e-05, No Iterations 15
GAMG:  Solving for p, Initial residual = 0.00431531, Final residual = 3.63771e-05, No Iterations 10
time step continuity errors : sum local = 4.65559e-07, global = -1.2125e-07, cumulative = 3.89188e-07
GAMG:  Solving for p, Initial residual = 0.00246315, Final residual = 2.27565e-05, No Iterations 20
GAMG:  Solving for p, Initial residual = 0.00139037, Final residual = 1.25094e-05, No Iterations 4
GAMG:  Solving for p, Initial residual = 0.00054605, Final residual = 9.37481e-07, No Iterations 36
time step continuity errors : sum local = 1.19588e-08, global = 3.52144e-09, cumulative = 3.92709e-07
DILUPBiCG:  Solving for omega, Initial residual = 0.000474312, Final residual = 6.67807e-07, No Iterations 1
DILUPBiCG:  Solving for k, Initial residual = 0.00481651, Final residual = 1.59244e-06, No Iterations 2
ExecutionTime = 40.64 s  ClockTime = 41 s

Courant Number mean: 0.222446 max: 0.494263
Time = 0.47

GAMG:  Solving for cellDisplacementx, Initial residual = 0, Final residual = 0, No Iterations 0
GAMG:  Solving for cellDisplacementy, Initial residual = 0, Final residual = 0, No Iterations 0
GAMG:  Solving for cellDisplacementz, Initial residual = 0, Final residual = 0, No Iterations 0
PIMPLE: iteration 1
DILUPBiCG:  Solving for Ux, Initial residual = 0.0470534, Final residual = 0.000193676, No Iterations 1
DILUPBiCG:  Solving for Uy, Initial residual = 0.0076544, Final residual = 1.79654e-05, No Iterations 1
DILUPBiCG:  Solving for Uz, Initial residual = 0.0118803, Final residual = 2.75256e-05, No Iterations 1
GAMG:  Solving for p, Initial residual = 0.121574, Final residual = 0.0010501, No Iterations 6
GAMG:  Solving for p, Initial residual = 0.0133638, Final residual = 0.000128523, No Iterations 20
GAMG:  Solving for p, Initial residual = 0.00588472, Final residual = 5.13328e-05, No Iterations 12
time step continuity errors : sum local = 7.14035e-07, global = 2.14733e-07, cumulative = 6.07443e-07
GAMG:  Solving for p, Initial residual = 0.0510854, Final residual = 0.000349306, No Iterations 6
GAMG:  Solving for p, Initial residual = 0.00677979, Final residual = 6.1837e-05, No Iterations 18
GAMG:  Solving for p, Initial residual = 0.00306692, Final residual = 3.03309e-05, No Iterations 10
time step continuity errors : sum local = 4.21072e-07, global = 1.10827e-07, cumulative = 7.1827e-07
PIMPLE: iteration 2
DILUPBiCG:  Solving for Ux, Initial residual = 0.0138607, Final residual = 7.78363e-05, No Iterations 1
DILUPBiCG:  Solving for Uy, Initial residual = 0.00238023, Final residual = 5.57097e-06, No Iterations 1
DILUPBiCG:  Solving for Uz, Initial residual = 0.00365399, Final residual = 1.17705e-05, No Iterations 1
GAMG:  Solving for p, Initial residual = 0.0512511, Final residual = 0.00047074, No Iterations 4
GAMG:  Solving for p, Initial residual = 0.00799163, Final residual = 7.24815e-05, No Iterations 18
GAMG:  Solving for p, Initial residual = 0.00373016, Final residual = 3.39884e-05, No Iterations 8
time step continuity errors : sum local = 4.00429e-07, global = -1.39857e-07, cumulative = 5.78413e-07
GAMG:  Solving for p, Initial residual = 0.0262821, Final residual = 0.000202253, No Iterations 4
GAMG:  Solving for p, Initial residual = 0.00390269, Final residual = 3.83506e-05, No Iterations 14
GAMG:  Solving for p, Initial residual = 0.00170185, Final residual = 1.65084e-05, No Iterations 10
time step continuity errors : sum local = 1.95747e-07, global = -5.2204e-08, cumulative = 5.26209e-07
PIMPLE: iteration 3
DILUPBiCG:  Solving for Ux, Initial residual = 0.00347821, Final residual = 1.48087e-06, No Iterations 2
DILUPBiCG:  Solving for Uy, Initial residual = 0.000595652, Final residual = 6.93712e-06, No Iterations 1
DILUPBiCG:  Solving for Uz, Initial residual = 0.00700999, Final residual = 2.52886e-06, No Iterations 2
GAMG:  Solving for p, Initial residual = 0.0394787, Final residual = 0.000324976, No Iterations 5
GAMG:  Solving for p, Initial residual = 0.00888956, Final residual = 7.72548e-05, No Iterations 15
GAMG:  Solving for p, Initial residual = 0.00431379, Final residual = 4.30862e-05, No Iterations 8
time step continuity errors : sum local = 5.69778e-07, global = -1.28264e-07, cumulative = 3.97945e-07
GAMG:  Solving for p, Initial residual = 0.00243345, Final residual = 2.12982e-05, No Iterations 20
GAMG:  Solving for p, Initial residual = 0.00136481, Final residual = 1.16949e-05, No Iterations 4
GAMG:  Solving for p, Initial residual = 0.000540567, Final residual = 9.75703e-07, No Iterations 34
time step continuity errors : sum local = 1.2858e-08, global = 3.77851e-09, cumulative = 4.01723e-07
DILUPBiCG:  Solving for omega, Initial residual = 0.000482851, Final residual = 6.27857e-07, No Iterations 1
DILUPBiCG:  Solving for k, Initial residual = 0.00474831, Final residual = 1.59803e-06, No Iterations 2
ExecutionTime = 43.78 s  ClockTime = 44 s

End

