/*---------------------------------------------------------------------------*\
| =========                 |                                                 |
| \\      /  F ield         | OpenFOAM: The Open Source CFD Toolbox           |
|  \\    /   O peration     | Version:  2.3.1                                 |
|   \\  /    A nd           | Web:      www.OpenFOAM.org                      |
|    \\/     M anipulation  |                                                 |
\*---------------------------------------------------------------------------*/
Build  : 2.3.1-262087cdf8db
Exec   : pimpleDyMFoam
Date   : Jun 06 2023
Time   : 02:41:13
Host   : "jcosson-VirtualBox"
PID    : 6206
Case   : /home/jcosson/workspace/henersj_shootingdata/calcs/moderate_deformed/primal/100_intervals_05-06-23/sweep70/interval98
nProcs : 1
sigFpe : Enabling floating point exception trapping (FOAM_SIGFPE).
fileModificationChecking : Monitoring run-time modified files using timeStampMaster
allowSystemOperations : Allowing user-supplied system call operations

// * * * * * * * * * * * * * * * * * * * * * * * * * * * * * * * * * * * * * //
Create time

Create mesh for time = 0.497

Selecting dynamicFvMesh dynamicMotionSolverFvMesh
Selecting motion solver: displacementLaplacian
Selecting motion diffusion: quadratic
Selecting motion diffusion: quadratic
Selecting motion diffusion: inverseDistance

PIMPLE: no residual control data found. Calculations will employ 3 corrector loops

Reading field p

Reading field U

Reading/calculating face flux field phi

Selecting incompressible transport model Newtonian
Selecting turbulence model type RASModel
Selecting RAS turbulence model kOmegaSST
bounding k, min: 0 max: 0.000512621 average: 0.000144539
kOmegaSSTCoeffs
{
    alphaK1         0.85034;
    alphaK2         1;
    alphaOmega1     0.5;
    alphaOmega2     0.85616;
    gamma1          0.5532;
    gamma2          0.4403;
    beta1           0.075;
    beta2           0.0828;
    betaStar        0.09;
    a1              0.31;
    c1              10;
    Cmu             0.09;
    b1              1;
    F3              false;
}

Reading/calculating face velocity Uf

No finite volume options present

Courant Number mean: 0.100171 max: 0.219748

Starting time loop

Courant Number mean: 0.100171 max: 0.219748
Time = 0.498

GAMG:  Solving for cellDisplacementx, Initial residual = 0, Final residual = 0, No Iterations 0
GAMG:  Solving for cellDisplacementy, Initial residual = 0, Final residual = 0, No Iterations 0
GAMG:  Solving for cellDisplacementz, Initial residual = 0, Final residual = 0, No Iterations 0
PIMPLE: iteration 1
DILUPBiCG:  Solving for Ux, Initial residual = 0.020294, Final residual = 7.94986e-05, No Iterations 1
DILUPBiCG:  Solving for Uy, Initial residual = 0.00445749, Final residual = 8.8487e-06, No Iterations 1
DILUPBiCG:  Solving for Uz, Initial residual = 0.00827377, Final residual = 1.38046e-05, No Iterations 1
GAMG:  Solving for p, Initial residual = 0.0956367, Final residual = 0.000927466, No Iterations 3
GAMG:  Solving for p, Initial residual = 0.013956, Final residual = 7.68929e-05, No Iterations 5
GAMG:  Solving for p, Initial residual = 0.00653381, Final residual = 5.34407e-05, No Iterations 4
time step continuity errors : sum local = 2.13714e-07, global = -4.3269e-08, cumulative = -4.3269e-08
GAMG:  Solving for p, Initial residual = 0.0473013, Final residual = 0.000465173, No Iterations 3
GAMG:  Solving for p, Initial residual = 0.00703971, Final residual = 3.46227e-05, No Iterations 5
GAMG:  Solving for p, Initial residual = 0.00328251, Final residual = 2.45527e-05, No Iterations 4
time step continuity errors : sum local = 9.8164e-08, global = -1.82013e-08, cumulative = -6.14703e-08
PIMPLE: iteration 2
DILUPBiCG:  Solving for Ux, Initial residual = 0.00451891, Final residual = 2.93131e-05, No Iterations 1
DILUPBiCG:  Solving for Uy, Initial residual = 0.00101371, Final residual = 2.15764e-06, No Iterations 1
DILUPBiCG:  Solving for Uz, Initial residual = 0.00297969, Final residual = 0.000150699, No Iterations 1
GAMG:  Solving for p, Initial residual = 0.0446299, Final residual = 0.000393313, No Iterations 6
GAMG:  Solving for p, Initial residual = 0.021706, Final residual = 0.000198438, No Iterations 7
GAMG:  Solving for p, Initial residual = 0.00492254, Final residual = 4.24398e-05, No Iterations 19
time step continuity errors : sum local = 1.47638e-07, global = -4.15431e-08, cumulative = -1.03013e-07
GAMG:  Solving for p, Initial residual = 0.023783, Final residual = 0.000182724, No Iterations 6
GAMG:  Solving for p, Initial residual = 0.0108993, Final residual = 9.76838e-05, No Iterations 6
GAMG:  Solving for p, Initial residual = 0.00228049, Final residual = 2.17135e-05, No Iterations 18
time step continuity errors : sum local = 7.54649e-08, global = -2.12001e-08, cumulative = -1.24214e-07
PIMPLE: iteration 3
DILUPBiCG:  Solving for Ux, Initial residual = 0.000569766, Final residual = 7.58733e-06, No Iterations 1
DILUPBiCG:  Solving for Uy, Initial residual = 0.000150626, Final residual = 1.69797e-06, No Iterations 1
DILUPBiCG:  Solving for Uz, Initial residual = 0.00184954, Final residual = 1.00664e-06, No Iterations 2
GAMG:  Solving for p, Initial residual = 0.0700171, Final residual = 0.000449806, No Iterations 5
GAMG:  Solving for p, Initial residual = 0.0133362, Final residual = 0.000124126, No Iterations 16
GAMG:  Solving for p, Initial residual = 0.0090964, Final residual = 7.63094e-05, No Iterations 8
time step continuity errors : sum local = 2.86715e-07, global = -7.07586e-08, cumulative = -1.94972e-07
GAMG:  Solving for p, Initial residual = 0.00311052, Final residual = 3.09021e-05, No Iterations 7
GAMG:  Solving for p, Initial residual = 0.00163885, Final residual = 1.48886e-05, No Iterations 5
GAMG:  Solving for p, Initial residual = 0.000595072, Final residual = 9.75405e-07, No Iterations 29
time step continuity errors : sum local = 3.61061e-09, global = 1.1011e-09, cumulative = -1.93871e-07
DILUPBiCG:  Solving for omega, Initial residual = 0.00129131, Final residual = 6.66411e-07, No Iterations 1
DILUPBiCG:  Solving for k, Initial residual = 0.00307524, Final residual = 7.2722e-07, No Iterations 2
bounding k, min: 0 max: 0.000506418 average: 0.000143909
ExecutionTime = 7.8 s  ClockTime = 7 s

End

