/*---------------------------------------------------------------------------*\
| =========                 |                                                 |
| \\      /  F ield         | OpenFOAM: The Open Source CFD Toolbox           |
|  \\    /   O peration     | Version:  2.3.1                                 |
|   \\  /    A nd           | Web:      www.OpenFOAM.org                      |
|    \\/     M anipulation  |                                                 |
\*---------------------------------------------------------------------------*/
Build  : 2.3.1-262087cdf8db
Exec   : pimpleDyMFoam
Date   : Jun 06 2023
Time   : 00:33:10
Host   : "jcosson-VirtualBox"
PID    : 5899
Case   : /home/jcosson/workspace/henersj_shootingdata/calcs/moderate_deformed/primal/100_intervals_05-06-23/sweep19/interval63
nProcs : 1
sigFpe : Enabling floating point exception trapping (FOAM_SIGFPE).
fileModificationChecking : Monitoring run-time modified files using timeStampMaster
allowSystemOperations : Allowing user-supplied system call operations

// * * * * * * * * * * * * * * * * * * * * * * * * * * * * * * * * * * * * * //
Create time

Create mesh for time = 0.462

Selecting dynamicFvMesh dynamicMotionSolverFvMesh
Selecting motion solver: displacementLaplacian
Selecting motion diffusion: quadratic
Selecting motion diffusion: quadratic
Selecting motion diffusion: inverseDistance

PIMPLE: no residual control data found. Calculations will employ 3 corrector loops

Reading field p

Reading field U

Reading/calculating face flux field phi

Selecting incompressible transport model Newtonian
Selecting turbulence model type RASModel
Selecting RAS turbulence model kOmegaSST
kOmegaSSTCoeffs
{
    alphaK1         0.85034;
    alphaK2         1;
    alphaOmega1     0.5;
    alphaOmega2     0.85616;
    gamma1          0.5532;
    gamma2          0.4403;
    beta1           0.075;
    beta2           0.0828;
    betaStar        0.09;
    a1              0.31;
    c1              10;
    Cmu             0.09;
    b1              1;
    F3              false;
}

Reading/calculating face velocity Uf

No finite volume options present

Courant Number mean: 0.255179 max: 0.567207

Starting time loop

Courant Number mean: 0.255179 max: 0.567207
Time = 0.463

GAMG:  Solving for cellDisplacementx, Initial residual = 0, Final residual = 0, No Iterations 0
GAMG:  Solving for cellDisplacementy, Initial residual = 0, Final residual = 0, No Iterations 0
GAMG:  Solving for cellDisplacementz, Initial residual = 0, Final residual = 0, No Iterations 0
PIMPLE: iteration 1
DILUPBiCG:  Solving for Ux, Initial residual = 0.0298621, Final residual = 0.000122973, No Iterations 1
DILUPBiCG:  Solving for Uy, Initial residual = 0.00475648, Final residual = 1.11823e-05, No Iterations 1
DILUPBiCG:  Solving for Uz, Initial residual = 0.0143429, Final residual = 3.95868e-05, No Iterations 1
GAMG:  Solving for p, Initial residual = 0.149446, Final residual = 0.00128275, No Iterations 6
GAMG:  Solving for p, Initial residual = 0.0180641, Final residual = 0.00017537, No Iterations 18
GAMG:  Solving for p, Initial residual = 0.00750233, Final residual = 6.86259e-05, No Iterations 12
time step continuity errors : sum local = 6.88601e-07, global = 2.07825e-07, cumulative = 2.07825e-07
GAMG:  Solving for p, Initial residual = 0.0610631, Final residual = 0.000411945, No Iterations 6
GAMG:  Solving for p, Initial residual = 0.00903778, Final residual = 8.26878e-05, No Iterations 16
GAMG:  Solving for p, Initial residual = 0.00390475, Final residual = 3.35968e-05, No Iterations 12
time step continuity errors : sum local = 3.35707e-07, global = 1.00579e-07, cumulative = 3.08404e-07
PIMPLE: iteration 2
DILUPBiCG:  Solving for Ux, Initial residual = 0.0092634, Final residual = 4.71398e-05, No Iterations 1
DILUPBiCG:  Solving for Uy, Initial residual = 0.0015521, Final residual = 4.08989e-06, No Iterations 1
DILUPBiCG:  Solving for Uz, Initial residual = 0.0039223, Final residual = 1.30212e-05, No Iterations 1
GAMG:  Solving for p, Initial residual = 0.062527, Final residual = 0.00042971, No Iterations 4
GAMG:  Solving for p, Initial residual = 0.0103353, Final residual = 9.72222e-05, No Iterations 14
GAMG:  Solving for p, Initial residual = 0.00474294, Final residual = 4.49033e-05, No Iterations 8
time step continuity errors : sum local = 3.79457e-07, global = -1.17674e-07, cumulative = 1.9073e-07
GAMG:  Solving for p, Initial residual = 0.0316862, Final residual = 0.000182217, No Iterations 4
GAMG:  Solving for p, Initial residual = 0.00504734, Final residual = 4.47321e-05, No Iterations 12
GAMG:  Solving for p, Initial residual = 0.00224155, Final residual = 2.04816e-05, No Iterations 8
time step continuity errors : sum local = 1.73975e-07, global = -5.17015e-08, cumulative = 1.39029e-07
PIMPLE: iteration 3
DILUPBiCG:  Solving for Ux, Initial residual = 0.00248797, Final residual = 3.57382e-06, No Iterations 2
DILUPBiCG:  Solving for Uy, Initial residual = 0.000413624, Final residual = 7.14051e-06, No Iterations 1
DILUPBiCG:  Solving for Uz, Initial residual = 0.00609404, Final residual = 1.78408e-06, No Iterations 2
GAMG:  Solving for p, Initial residual = 0.0417313, Final residual = 0.000332144, No Iterations 5
GAMG:  Solving for p, Initial residual = 0.00954588, Final residual = 9.50886e-05, No Iterations 13
GAMG:  Solving for p, Initial residual = 0.00447186, Final residual = 3.85112e-05, No Iterations 12
time step continuity errors : sum local = 3.63308e-07, global = -1.06755e-07, cumulative = 3.22736e-08
GAMG:  Solving for p, Initial residual = 0.00286672, Final residual = 2.67305e-05, No Iterations 18
GAMG:  Solving for p, Initial residual = 0.0016141, Final residual = 1.4121e-05, No Iterations 4
GAMG:  Solving for p, Initial residual = 0.000614852, Final residual = 9.23873e-07, No Iterations 38
time step continuity errors : sum local = 8.69799e-09, global = 2.57702e-09, cumulative = 3.48506e-08
DILUPBiCG:  Solving for omega, Initial residual = 0.000624926, Final residual = 1.34909e-06, No Iterations 1
DILUPBiCG:  Solving for k, Initial residual = 0.00482424, Final residual = 1.09554e-06, No Iterations 2
ExecutionTime = 17.42 s  ClockTime = 18 s

End

