/*---------------------------------------------------------------------------*\
| =========                 |                                                 |
| \\      /  F ield         | OpenFOAM: The Open Source CFD Toolbox           |
|  \\    /   O peration     | Version:  2.3.1                                 |
|   \\  /    A nd           | Web:      www.OpenFOAM.org                      |
|    \\/     M anipulation  |                                                 |
\*---------------------------------------------------------------------------*/
Build  : 2.3.1-262087cdf8db
Exec   : pimpleDyMFoam
Date   : Jun 06 2023
Time   : 00:25:09
Host   : "jcosson-VirtualBox"
PID    : 2138
Case   : /home/jcosson/workspace/henersj_shootingdata/calcs/moderate_deformed/primal/100_intervals_05-06-23/sweep17/interval29
nProcs : 1
sigFpe : Enabling floating point exception trapping (FOAM_SIGFPE).
fileModificationChecking : Monitoring run-time modified files using timeStampMaster
allowSystemOperations : Allowing user-supplied system call operations

// * * * * * * * * * * * * * * * * * * * * * * * * * * * * * * * * * * * * * //
Create time

Create mesh for time = 0.428

Selecting dynamicFvMesh dynamicMotionSolverFvMesh
Selecting motion solver: displacementLaplacian
Selecting motion diffusion: quadratic
Selecting motion diffusion: quadratic
Selecting motion diffusion: inverseDistance

PIMPLE: no residual control data found. Calculations will employ 3 corrector loops

Reading field p

Reading field U

Reading/calculating face flux field phi

Selecting incompressible transport model Newtonian
Selecting turbulence model type RASModel
Selecting RAS turbulence model kOmegaSST
kOmegaSSTCoeffs
{
    alphaK1         0.85034;
    alphaK2         1;
    alphaOmega1     0.5;
    alphaOmega2     0.85616;
    gamma1          0.5532;
    gamma2          0.4403;
    beta1           0.075;
    beta2           0.0828;
    betaStar        0.09;
    a1              0.31;
    c1              10;
    Cmu             0.09;
    b1              1;
    F3              false;
}

Reading/calculating face velocity Uf

No finite volume options present

Courant Number mean: 0.204998 max: 0.44319

Starting time loop

Courant Number mean: 0.204998 max: 0.44319
Time = 0.429

GAMG:  Solving for cellDisplacementx, Initial residual = 0, Final residual = 0, No Iterations 0
GAMG:  Solving for cellDisplacementy, Initial residual = 0, Final residual = 0, No Iterations 0
GAMG:  Solving for cellDisplacementz, Initial residual = 0, Final residual = 0, No Iterations 0
PIMPLE: iteration 1
DILUPBiCG:  Solving for Ux, Initial residual = 0.0543839, Final residual = 0.000179292, No Iterations 1
DILUPBiCG:  Solving for Uy, Initial residual = 0.00891968, Final residual = 1.91131e-05, No Iterations 1
DILUPBiCG:  Solving for Uz, Initial residual = 0.0190667, Final residual = 2.74967e-05, No Iterations 1
GAMG:  Solving for p, Initial residual = 0.123434, Final residual = 0.000818402, No Iterations 6
GAMG:  Solving for p, Initial residual = 0.0153051, Final residual = 0.000133065, No Iterations 18
GAMG:  Solving for p, Initial residual = 0.00673373, Final residual = 5.90618e-05, No Iterations 10
time step continuity errors : sum local = 8.89258e-07, global = -2.27701e-07, cumulative = -2.27701e-07
GAMG:  Solving for p, Initial residual = 0.0532198, Final residual = 0.000489182, No Iterations 4
GAMG:  Solving for p, Initial residual = 0.00764212, Final residual = 6.88532e-05, No Iterations 18
GAMG:  Solving for p, Initial residual = 0.00353341, Final residual = 3.20171e-05, No Iterations 10
time step continuity errors : sum local = 4.82637e-07, global = -1.23936e-07, cumulative = -3.51637e-07
PIMPLE: iteration 2
DILUPBiCG:  Solving for Ux, Initial residual = 0.0153345, Final residual = 6.69196e-05, No Iterations 1
DILUPBiCG:  Solving for Uy, Initial residual = 0.00251596, Final residual = 7.11885e-06, No Iterations 1
DILUPBiCG:  Solving for Uz, Initial residual = 0.00343357, Final residual = 1.21209e-05, No Iterations 1
GAMG:  Solving for p, Initial residual = 0.0537054, Final residual = 0.000508604, No Iterations 4
GAMG:  Solving for p, Initial residual = 0.00968054, Final residual = 8.33272e-05, No Iterations 16
GAMG:  Solving for p, Initial residual = 0.00426933, Final residual = 3.89227e-05, No Iterations 8
time step continuity errors : sum local = 4.98797e-07, global = 1.45064e-07, cumulative = -2.06573e-07
GAMG:  Solving for p, Initial residual = 0.0277146, Final residual = 0.000220804, No Iterations 4
GAMG:  Solving for p, Initial residual = 0.00478555, Final residual = 4.00007e-05, No Iterations 14
GAMG:  Solving for p, Initial residual = 0.00200923, Final residual = 1.91658e-05, No Iterations 8
time step continuity errors : sum local = 2.47079e-07, global = 6.2422e-08, cumulative = -1.44151e-07
PIMPLE: iteration 3
DILUPBiCG:  Solving for Ux, Initial residual = 0.00367616, Final residual = 1.30764e-06, No Iterations 2
DILUPBiCG:  Solving for Uy, Initial residual = 0.000606293, Final residual = 8.51965e-06, No Iterations 1
DILUPBiCG:  Solving for Uz, Initial residual = 0.00891249, Final residual = 2.76064e-06, No Iterations 2
GAMG:  Solving for p, Initial residual = 0.0409495, Final residual = 0.000294578, No Iterations 5
GAMG:  Solving for p, Initial residual = 0.00994282, Final residual = 7.74141e-05, No Iterations 5
GAMG:  Solving for p, Initial residual = 0.00432389, Final residual = 3.82017e-05, No Iterations 8
time step continuity errors : sum local = 5.50881e-07, global = 1.24428e-07, cumulative = -1.97236e-08
GAMG:  Solving for p, Initial residual = 0.00246441, Final residual = 2.40039e-05, No Iterations 18
GAMG:  Solving for p, Initial residual = 0.00143506, Final residual = 1.24628e-05, No Iterations 4
GAMG:  Solving for p, Initial residual = 0.000539514, Final residual = 8.9161e-07, No Iterations 36
time step continuity errors : sum local = 1.2793e-08, global = -3.75405e-09, cumulative = -2.34777e-08
DILUPBiCG:  Solving for omega, Initial residual = 0.000757706, Final residual = 8.37386e-07, No Iterations 1
DILUPBiCG:  Solving for k, Initial residual = 0.00510121, Final residual = 1.15378e-06, No Iterations 2
ExecutionTime = 17.55 s  ClockTime = 17 s

End

