/*---------------------------------------------------------------------------*\
| =========                 |                                                 |
| \\      /  F ield         | OpenFOAM: The Open Source CFD Toolbox           |
|  \\    /   O peration     | Version:  2.3.1                                 |
|   \\  /    A nd           | Web:      www.OpenFOAM.org                      |
|    \\/     M anipulation  |                                                 |
\*---------------------------------------------------------------------------*/
Build  : 2.3.1-262087cdf8db
Exec   : pimpleDyMFoam
Date   : Jun 06 2023
Time   : 00:26:36
Host   : "jcosson-VirtualBox"
PID    : 2318
Case   : /home/jcosson/workspace/henersj_shootingdata/calcs/moderate_deformed/primal/100_intervals_05-06-23/sweep17/interval90
nProcs : 1
sigFpe : Enabling floating point exception trapping (FOAM_SIGFPE).
fileModificationChecking : Monitoring run-time modified files using timeStampMaster
allowSystemOperations : Allowing user-supplied system call operations

// * * * * * * * * * * * * * * * * * * * * * * * * * * * * * * * * * * * * * //
Create time

Create mesh for time = 0.489

Selecting dynamicFvMesh dynamicMotionSolverFvMesh
Selecting motion solver: displacementLaplacian
Selecting motion diffusion: quadratic
Selecting motion diffusion: quadratic
Selecting motion diffusion: inverseDistance

PIMPLE: no residual control data found. Calculations will employ 3 corrector loops

Reading field p

Reading field U

Reading/calculating face flux field phi

Selecting incompressible transport model Newtonian
Selecting turbulence model type RASModel
Selecting RAS turbulence model kOmegaSST
bounding k, min: 0 max: 0.00072687 average: 0.000159708
kOmegaSSTCoeffs
{
    alphaK1         0.85034;
    alphaK2         1;
    alphaOmega1     0.5;
    alphaOmega2     0.85616;
    gamma1          0.5532;
    gamma2          0.4403;
    beta1           0.075;
    beta2           0.0828;
    betaStar        0.09;
    a1              0.31;
    c1              10;
    Cmu             0.09;
    b1              1;
    F3              false;
}

Reading/calculating face velocity Uf

No finite volume options present

Courant Number mean: 0.11883 max: 0.26651

Starting time loop

Courant Number mean: 0.11883 max: 0.26651
Time = 0.49

GAMG:  Solving for cellDisplacementx, Initial residual = 0, Final residual = 0, No Iterations 0
GAMG:  Solving for cellDisplacementy, Initial residual = 0, Final residual = 0, No Iterations 0
GAMG:  Solving for cellDisplacementz, Initial residual = 0, Final residual = 0, No Iterations 0
PIMPLE: iteration 1
DILUPBiCG:  Solving for Ux, Initial residual = 0.0550358, Final residual = 0.000200835, No Iterations 1
DILUPBiCG:  Solving for Uy, Initial residual = 0.0109893, Final residual = 2.25764e-05, No Iterations 1
DILUPBiCG:  Solving for Uz, Initial residual = 0.0201395, Final residual = 2.10043e-05, No Iterations 1
GAMG:  Solving for p, Initial residual = 0.117014, Final residual = 0.000691774, No Iterations 4
GAMG:  Solving for p, Initial residual = 0.0162311, Final residual = 0.00013954, No Iterations 16
GAMG:  Solving for p, Initial residual = 0.00761184, Final residual = 6.53653e-05, No Iterations 4
time step continuity errors : sum local = 6.97718e-07, global = 2.81215e-07, cumulative = 2.81215e-07
GAMG:  Solving for p, Initial residual = 0.0529279, Final residual = 0.000286988, No Iterations 4
GAMG:  Solving for p, Initial residual = 0.00802907, Final residual = 6.82163e-05, No Iterations 14
GAMG:  Solving for p, Initial residual = 0.00381638, Final residual = 3.53695e-05, No Iterations 4
time step continuity errors : sum local = 3.79242e-07, global = 1.5063e-07, cumulative = 4.31845e-07
PIMPLE: iteration 2
DILUPBiCG:  Solving for Ux, Initial residual = 0.0140994, Final residual = 8.01663e-05, No Iterations 1
DILUPBiCG:  Solving for Uy, Initial residual = 0.0029271, Final residual = 6.04608e-06, No Iterations 1
DILUPBiCG:  Solving for Uz, Initial residual = 0.00285841, Final residual = 8.15605e-06, No Iterations 1
GAMG:  Solving for p, Initial residual = 0.0519484, Final residual = 0.000490395, No Iterations 5
GAMG:  Solving for p, Initial residual = 0.0111077, Final residual = 0.000109777, No Iterations 8
GAMG:  Solving for p, Initial residual = 0.00464352, Final residual = 2.56121e-05, No Iterations 5
time step continuity errors : sum local = 2.38186e-07, global = -5.92548e-08, cumulative = 3.72591e-07
GAMG:  Solving for p, Initial residual = 0.0274404, Final residual = 0.00024531, No Iterations 4
GAMG:  Solving for p, Initial residual = 0.00584354, Final residual = 5.78721e-05, No Iterations 12
GAMG:  Solving for p, Initial residual = 0.00236497, Final residual = 2.32302e-05, No Iterations 10
time step continuity errors : sum local = 2.1635e-07, global = -5.48079e-08, cumulative = 3.17783e-07
PIMPLE: iteration 3
DILUPBiCG:  Solving for Ux, Initial residual = 0.00291211, Final residual = 2.29279e-06, No Iterations 2
DILUPBiCG:  Solving for Uy, Initial residual = 0.000662134, Final residual = 4.80004e-06, No Iterations 1
DILUPBiCG:  Solving for Uz, Initial residual = 0.00436207, Final residual = 1.68903e-06, No Iterations 2
GAMG:  Solving for p, Initial residual = 0.0452379, Final residual = 0.000347898, No Iterations 5
GAMG:  Solving for p, Initial residual = 0.0104988, Final residual = 0.000103898, No Iterations 14
GAMG:  Solving for p, Initial residual = 0.00544377, Final residual = 4.50644e-05, No Iterations 12
time step continuity errors : sum local = 4.69947e-07, global = -1.3879e-07, cumulative = 1.78993e-07
GAMG:  Solving for p, Initial residual = 0.00259549, Final residual = 1.86149e-05, No Iterations 8
GAMG:  Solving for p, Initial residual = 0.00133722, Final residual = 9.27973e-06, No Iterations 5
GAMG:  Solving for p, Initial residual = 0.000528, Final residual = 8.9765e-07, No Iterations 28
time step continuity errors : sum local = 9.24506e-09, global = 2.7911e-09, cumulative = 1.81784e-07
DILUPBiCG:  Solving for omega, Initial residual = 0.00136878, Final residual = 8.09583e-07, No Iterations 1
DILUPBiCG:  Solving for k, Initial residual = 0.00387696, Final residual = 6.65144e-07, No Iterations 2
bounding k, min: 0 max: 0.000714178 average: 0.000158674
ExecutionTime = 13.41 s  ClockTime = 13 s

End

