/*---------------------------------------------------------------------------*\
| =========                 |                                                 |
| \\      /  F ield         | OpenFOAM: The Open Source CFD Toolbox           |
|  \\    /   O peration     | Version:  2.3.1                                 |
|   \\  /    A nd           | Web:      www.OpenFOAM.org                      |
|    \\/     M anipulation  |                                                 |
\*---------------------------------------------------------------------------*/
Build  : 2.3.1-262087cdf8db
Exec   : pimpleDyMFoam
Date   : Jun 06 2023
Time   : 00:56:16
Host   : "jcosson-VirtualBox"
PID    : 17654
Case   : /home/jcosson/workspace/henersj_shootingdata/calcs/moderate_deformed/primal/100_intervals_05-06-23/sweep26/interval50
nProcs : 1
sigFpe : Enabling floating point exception trapping (FOAM_SIGFPE).
fileModificationChecking : Monitoring run-time modified files using timeStampMaster
allowSystemOperations : Allowing user-supplied system call operations

// * * * * * * * * * * * * * * * * * * * * * * * * * * * * * * * * * * * * * //
Create time

Create mesh for time = 0.449

Selecting dynamicFvMesh dynamicMotionSolverFvMesh
Selecting motion solver: displacementLaplacian
Selecting motion diffusion: quadratic
Selecting motion diffusion: quadratic
Selecting motion diffusion: inverseDistance

PIMPLE: no residual control data found. Calculations will employ 3 corrector loops

Reading field p

Reading field U

Reading/calculating face flux field phi

Selecting incompressible transport model Newtonian
Selecting turbulence model type RASModel
Selecting RAS turbulence model kOmegaSST
kOmegaSSTCoeffs
{
    alphaK1         0.85034;
    alphaK2         1;
    alphaOmega1     0.5;
    alphaOmega2     0.85616;
    gamma1          0.5532;
    gamma2          0.4403;
    beta1           0.075;
    beta2           0.0828;
    betaStar        0.09;
    a1              0.31;
    c1              10;
    Cmu             0.09;
    b1              1;
    F3              false;
}

Reading/calculating face velocity Uf

No finite volume options present

Courant Number mean: 0.279649 max: 0.616966

Starting time loop

Courant Number mean: 0.279649 max: 0.616966
Time = 0.45

GAMG:  Solving for cellDisplacementx, Initial residual = 0, Final residual = 0, No Iterations 0
GAMG:  Solving for cellDisplacementy, Initial residual = 0, Final residual = 0, No Iterations 0
GAMG:  Solving for cellDisplacementz, Initial residual = 0, Final residual = 0, No Iterations 0
PIMPLE: iteration 1
DILUPBiCG:  Solving for Ux, Initial residual = 0.00420237, Final residual = 3.1216e-05, No Iterations 1
DILUPBiCG:  Solving for Uy, Initial residual = 0.000733343, Final residual = 9.54284e-06, No Iterations 1
DILUPBiCG:  Solving for Uz, Initial residual = 0.0126463, Final residual = 3.09306e-05, No Iterations 1
GAMG:  Solving for p, Initial residual = 0.158903, Final residual = 0.000858936, No Iterations 5
GAMG:  Solving for p, Initial residual = 0.0455937, Final residual = 0.000451605, No Iterations 6
GAMG:  Solving for p, Initial residual = 0.0131185, Final residual = 0.000125797, No Iterations 16
time step continuity errors : sum local = 2.91018e-07, global = 8.79835e-08, cumulative = 8.79835e-08
GAMG:  Solving for p, Initial residual = 0.0868809, Final residual = 0.00078538, No Iterations 4
GAMG:  Solving for p, Initial residual = 0.0220096, Final residual = 0.00016607, No Iterations 5
GAMG:  Solving for p, Initial residual = 0.00691441, Final residual = 5.8818e-05, No Iterations 12
time step continuity errors : sum local = 1.35817e-07, global = 3.96371e-08, cumulative = 1.27621e-07
PIMPLE: iteration 2
DILUPBiCG:  Solving for Ux, Initial residual = 0.000751214, Final residual = 8.96226e-06, No Iterations 1
DILUPBiCG:  Solving for Uy, Initial residual = 0.000140531, Final residual = 4.24777e-09, No Iterations 2
DILUPBiCG:  Solving for Uz, Initial residual = 0.00390808, Final residual = 1.9298e-05, No Iterations 1
GAMG:  Solving for p, Initial residual = 0.088695, Final residual = 0.000733959, No Iterations 5
GAMG:  Solving for p, Initial residual = 0.028706, Final residual = 0.000261178, No Iterations 12
GAMG:  Solving for p, Initial residual = 0.00968046, Final residual = 9.01003e-05, No Iterations 14
time step continuity errors : sum local = 1.92308e-07, global = 5.86004e-08, cumulative = 1.86221e-07
GAMG:  Solving for p, Initial residual = 0.0481006, Final residual = 0.000411126, No Iterations 4
GAMG:  Solving for p, Initial residual = 0.0141001, Final residual = 0.000131196, No Iterations 9
GAMG:  Solving for p, Initial residual = 0.00464569, Final residual = 4.51672e-05, No Iterations 14
time step continuity errors : sum local = 9.67266e-08, global = 2.92243e-08, cumulative = 2.15445e-07
PIMPLE: iteration 3
DILUPBiCG:  Solving for Ux, Initial residual = 0.000107616, Final residual = 1.29585e-06, No Iterations 1
DILUPBiCG:  Solving for Uy, Initial residual = 3.50391e-05, Final residual = 1.75404e-07, No Iterations 1
DILUPBiCG:  Solving for Uz, Initial residual = 0.00179682, Final residual = 1.46076e-07, No Iterations 2
GAMG:  Solving for p, Initial residual = 0.0981505, Final residual = 0.000959215, No Iterations 3
GAMG:  Solving for p, Initial residual = 0.0217361, Final residual = 0.000202638, No Iterations 12
GAMG:  Solving for p, Initial residual = 0.0144496, Final residual = 0.000138602, No Iterations 4
time step continuity errors : sum local = 3.06043e-07, global = 8.2235e-08, cumulative = 2.9768e-07
GAMG:  Solving for p, Initial residual = 0.00819686, Final residual = 7.75235e-05, No Iterations 4
GAMG:  Solving for p, Initial residual = 0.00439737, Final residual = 3.1929e-05, No Iterations 4
GAMG:  Solving for p, Initial residual = 0.00142854, Final residual = 9.67919e-07, No Iterations 28
time step continuity errors : sum local = 2.10662e-09, global = 6.13538e-10, cumulative = 2.98294e-07
DILUPBiCG:  Solving for omega, Initial residual = 0.00110062, Final residual = 1.51826e-06, No Iterations 1
DILUPBiCG:  Solving for k, Initial residual = 0.00540707, Final residual = 9.77539e-07, No Iterations 2
ExecutionTime = 16.11 s  ClockTime = 16 s

End

