/*---------------------------------------------------------------------------*\
| =========                 |                                                 |
| \\      /  F ield         | OpenFOAM: The Open Source CFD Toolbox           |
|  \\    /   O peration     | Version:  2.3.1                                 |
|   \\  /    A nd           | Web:      www.OpenFOAM.org                      |
|    \\/     M anipulation  |                                                 |
\*---------------------------------------------------------------------------*/
Build  : 2.3.1-262087cdf8db
Exec   : linearisedPimpleDyMFoam
Date   : Jun 06 2023
Time   : 01:22:33
Host   : "jcosson-VirtualBox"
PID    : 31318
Case   : /home/jcosson/workspace/henersj_shootingdata/calcs/moderate_deformed/primal/100_intervals_05-06-23/sweep34/interval48
nProcs : 1
sigFpe : Enabling floating point exception trapping (FOAM_SIGFPE).
fileModificationChecking : Monitoring run-time modified files using timeStampMaster
allowSystemOperations : Allowing user-supplied system call operations

// * * * * * * * * * * * * * * * * * * * * * * * * * * * * * * * * * * * * * //
Create time

Create mesh for time = 0.447

Selecting dynamicFvMesh dynamicMotionSolverFvMesh
Selecting motion solver: displacementLaplacian
Selecting motion diffusion: quadratic
Selecting motion diffusion: quadratic
Selecting motion diffusion: inverseDistance
Reading field linP

Reading field linU

starte createPhia.H

Reading/calculating face flux field linPhi

Adjungierte Interpolation durchgefuehrt

createPhia.H verlassen

setRefCell ausgefuehrt

No finite volume options present


PIMPLE: no residual control data found. Calculations will employ 3 corrector loops


Starting time loop

Time = 0.448

Reading field p

Reading field U

Read primal fluxes 

Reading primal face flux fields phi/meshPhi

Created primal fluxes 

Selecting incompressible transport model Newtonian
singlePhaseTransportModel gewaehlt 

Selecting turbulence model type RASModel
Selecting RAS turbulence model kOmegaSST
kOmegaSSTCoeffs
{
    alphaK1         0.85034;
    alphaK2         1;
    alphaOmega1     0.5;
    alphaOmega2     0.85616;
    gamma1          0.5532;
    gamma2          0.4403;
    beta1           0.075;
    beta2           0.0828;
    betaStar        0.09;
    a1              0.31;
    c1              10;
    Cmu             0.09;
    b1              1;
    F3              false;
}

autoPtr ausgefuehrt

Reading/calculating face velocity Uf

Init adjoint face velocity linUf

Courant Number mean: 0.279229 max: 0.617595
Adjoint Courant Number mean: 0.000165242 max: 0.00261049
GAMG:  Solving for cellDisplacementx, Initial residual = 0, Final residual = 0, No Iterations 0
GAMG:  Solving for cellDisplacementy, Initial residual = 0, Final residual = 0, No Iterations 0
GAMG:  Solving for cellDisplacementz, Initial residual = 0, Final residual = 0, No Iterations 0
PIMPLE: iteration 1
DILUPBiCG:  Solving for linUx, Initial residual = 0.0492936, Final residual = 0.00016165, No Iterations 1
DILUPBiCG:  Solving for linUy, Initial residual = 0.0945087, Final residual = 0.000238193, No Iterations 1
DILUPBiCG:  Solving for linUz, Initial residual = 0.130375, Final residual = 0.000357546, No Iterations 1
GAMG:  Solving for linP, Initial residual = 1, Final residual = 0.00867293, No Iterations 2
GAMG:  Solving for linP, Initial residual = 0.0116075, Final residual = 7.07449e-05, No Iterations 4
GAMG:  Solving for linP, Initial residual = 0.00382864, Final residual = 1.52765e-05, No Iterations 4
Adjoint continuity errors : sum local = 4.5361e-09, global = -1.38891e-09, cumulative = -1.38891e-09
GAMG:  Solving for linP, Initial residual = 0.0445801, Final residual = 0.000213723, No Iterations 3
GAMG:  Solving for linP, Initial residual = 0.00387036, Final residual = 1.94066e-05, No Iterations 4
GAMG:  Solving for linP, Initial residual = 0.00117157, Final residual = 1.14306e-05, No Iterations 4
Adjoint continuity errors : sum local = 3.19392e-09, global = 4.94416e-10, cumulative = -8.94491e-10
PIMPLE: iteration 2
DILUPBiCG:  Solving for linUx, Initial residual = 0.00601046, Final residual = 2.6548e-05, No Iterations 1
DILUPBiCG:  Solving for linUy, Initial residual = 0.0129186, Final residual = 4.37791e-05, No Iterations 1
DILUPBiCG:  Solving for linUz, Initial residual = 0.0151958, Final residual = 4.74073e-05, No Iterations 1
GAMG:  Solving for linP, Initial residual = 0.0524746, Final residual = 0.000490494, No Iterations 2
GAMG:  Solving for linP, Initial residual = 0.00216869, Final residual = 1.2329e-05, No Iterations 4
GAMG:  Solving for linP, Initial residual = 0.000669234, Final residual = 5.58053e-06, No Iterations 3
Adjoint continuity errors : sum local = 1.60101e-09, global = 1.46998e-10, cumulative = -7.47493e-10
GAMG:  Solving for linP, Initial residual = 0.0036217, Final residual = 1.75787e-05, No Iterations 3
GAMG:  Solving for linP, Initial residual = 0.000425858, Final residual = 3.73452e-06, No Iterations 3
GAMG:  Solving for linP, Initial residual = 0.000129256, Final residual = 7.58935e-07, No Iterations 4
Adjoint continuity errors : sum local = 2.17641e-10, global = -1.98668e-11, cumulative = -7.6736e-10
PIMPLE: iteration 3
DILUPBiCG:  Solving for linUx, Initial residual = 0.00111157, Final residual = 5.31399e-06, No Iterations 1
DILUPBiCG:  Solving for linUy, Initial residual = 0.00256547, Final residual = 9.74384e-06, No Iterations 1
DILUPBiCG:  Solving for linUz, Initial residual = 0.00252956, Final residual = 7.86201e-06, No Iterations 1
GAMG:  Solving for linP, Initial residual = 0.0422366, Final residual = 0.000313453, No Iterations 2
GAMG:  Solving for linP, Initial residual = 0.00124883, Final residual = 1.06641e-05, No Iterations 3
GAMG:  Solving for linP, Initial residual = 0.000401693, Final residual = 3.68562e-06, No Iterations 3
Adjoint continuity errors : sum local = 1.08804e-09, global = 6.48956e-12, cumulative = -7.6087e-10
GAMG:  Solving for linP, Initial residual = 0.00266128, Final residual = 8.01841e-06, No Iterations 3
GAMG:  Solving for linP, Initial residual = 0.000183219, Final residual = 1.50581e-06, No Iterations 3
GAMG:  Solving for linP, Initial residual = 6.13304e-05, Final residual = 3.24289e-07, No Iterations 4
Adjoint continuity errors : sum local = 9.60795e-11, global = -1.14926e-11, cumulative = -7.72363e-10
ExecutionTime = 12.46 s  ClockTime = 12 s

End

