/*---------------------------------------------------------------------------*\
| =========                 |                                                 |
| \\      /  F ield         | OpenFOAM: The Open Source CFD Toolbox           |
|  \\    /   O peration     | Version:  2.3.1                                 |
|   \\  /    A nd           | Web:      www.OpenFOAM.org                      |
|    \\/     M anipulation  |                                                 |
\*---------------------------------------------------------------------------*/
Build  : 2.3.1-262087cdf8db
Exec   : pimpleDyMFoam
Date   : Jun 06 2023
Time   : 01:21:04
Host   : "jcosson-VirtualBox"
PID    : 30003
Case   : /home/jcosson/workspace/henersj_shootingdata/calcs/moderate_deformed/primal/100_intervals_05-06-23/sweep34/interval62
nProcs : 1
sigFpe : Enabling floating point exception trapping (FOAM_SIGFPE).
fileModificationChecking : Monitoring run-time modified files using timeStampMaster
allowSystemOperations : Allowing user-supplied system call operations

// * * * * * * * * * * * * * * * * * * * * * * * * * * * * * * * * * * * * * //
Create time

Create mesh for time = 0.461

Selecting dynamicFvMesh dynamicMotionSolverFvMesh
Selecting motion solver: displacementLaplacian
Selecting motion diffusion: quadratic
Selecting motion diffusion: quadratic
Selecting motion diffusion: inverseDistance

PIMPLE: no residual control data found. Calculations will employ 3 corrector loops

Reading field p

Reading field U

Reading/calculating face flux field phi

Selecting incompressible transport model Newtonian
Selecting turbulence model type RASModel
Selecting RAS turbulence model kOmegaSST
kOmegaSSTCoeffs
{
    alphaK1         0.85034;
    alphaK2         1;
    alphaOmega1     0.5;
    alphaOmega2     0.85616;
    gamma1          0.5532;
    gamma2          0.4403;
    beta1           0.075;
    beta2           0.0828;
    betaStar        0.09;
    a1              0.31;
    c1              10;
    Cmu             0.09;
    b1              1;
    F3              false;
}

Reading/calculating face velocity Uf

No finite volume options present

Courant Number mean: 0.259004 max: 0.573665

Starting time loop

Courant Number mean: 0.259004 max: 0.573665
Time = 0.462

GAMG:  Solving for cellDisplacementx, Initial residual = 0, Final residual = 0, No Iterations 0
GAMG:  Solving for cellDisplacementy, Initial residual = 0, Final residual = 0, No Iterations 0
GAMG:  Solving for cellDisplacementz, Initial residual = 0, Final residual = 0, No Iterations 0
PIMPLE: iteration 1
DILUPBiCG:  Solving for Ux, Initial residual = 0.027344, Final residual = 0.00011162, No Iterations 1
DILUPBiCG:  Solving for Uy, Initial residual = 0.00435399, Final residual = 1.02378e-05, No Iterations 1
DILUPBiCG:  Solving for Uz, Initial residual = 0.0145314, Final residual = 3.71685e-05, No Iterations 1
GAMG:  Solving for p, Initial residual = 0.15313, Final residual = 0.00131777, No Iterations 6
GAMG:  Solving for p, Initial residual = 0.0187234, Final residual = 0.000178548, No Iterations 18
GAMG:  Solving for p, Initial residual = 0.00767322, Final residual = 6.96756e-05, No Iterations 12
time step continuity errors : sum local = 6.53354e-07, global = 1.96511e-07, cumulative = 1.96511e-07
GAMG:  Solving for p, Initial residual = 0.0623041, Final residual = 0.000421769, No Iterations 6
GAMG:  Solving for p, Initial residual = 0.00933715, Final residual = 8.44926e-05, No Iterations 16
GAMG:  Solving for p, Initial residual = 0.00400065, Final residual = 3.3737e-05, No Iterations 12
time step continuity errors : sum local = 3.14778e-07, global = 9.38639e-08, cumulative = 2.90375e-07
PIMPLE: iteration 2
DILUPBiCG:  Solving for Ux, Initial residual = 0.00855435, Final residual = 4.20011e-05, No Iterations 1
DILUPBiCG:  Solving for Uy, Initial residual = 0.00143054, Final residual = 3.89824e-06, No Iterations 1
DILUPBiCG:  Solving for Uz, Initial residual = 0.00398766, Final residual = 1.19958e-05, No Iterations 1
GAMG:  Solving for p, Initial residual = 0.0639531, Final residual = 0.000417349, No Iterations 4
GAMG:  Solving for p, Initial residual = 0.0105878, Final residual = 9.50735e-05, No Iterations 14
GAMG:  Solving for p, Initial residual = 0.00485057, Final residual = 4.3574e-05, No Iterations 8
time step continuity errors : sum local = 3.43806e-07, global = -1.09121e-07, cumulative = 1.81254e-07
GAMG:  Solving for p, Initial residual = 0.0323326, Final residual = 0.000176443, No Iterations 4
GAMG:  Solving for p, Initial residual = 0.00515306, Final residual = 4.37829e-05, No Iterations 12
GAMG:  Solving for p, Initial residual = 0.00229298, Final residual = 1.9656e-05, No Iterations 8
time step continuity errors : sum local = 1.55867e-07, global = -4.69797e-08, cumulative = 1.34274e-07
PIMPLE: iteration 3
DILUPBiCG:  Solving for Ux, Initial residual = 0.00232653, Final residual = 7.40199e-06, No Iterations 2
DILUPBiCG:  Solving for Uy, Initial residual = 0.000386157, Final residual = 6.83125e-06, No Iterations 1
DILUPBiCG:  Solving for Uz, Initial residual = 0.00555646, Final residual = 1.33383e-06, No Iterations 2
GAMG:  Solving for p, Initial residual = 0.0424878, Final residual = 0.000342575, No Iterations 5
GAMG:  Solving for p, Initial residual = 0.00970943, Final residual = 8.56957e-05, No Iterations 15
GAMG:  Solving for p, Initial residual = 0.00453993, Final residual = 3.65244e-05, No Iterations 10
time step continuity errors : sum local = 3.21119e-07, global = -8.35306e-08, cumulative = 5.07434e-08
GAMG:  Solving for p, Initial residual = 0.00292009, Final residual = 2.8999e-05, No Iterations 18
GAMG:  Solving for p, Initial residual = 0.00166206, Final residual = 1.57198e-05, No Iterations 4
GAMG:  Solving for p, Initial residual = 0.000628746, Final residual = 8.80264e-07, No Iterations 40
time step continuity errors : sum local = 7.73151e-09, global = 2.29961e-09, cumulative = 5.3043e-08
DILUPBiCG:  Solving for omega, Initial residual = 0.000601014, Final residual = 1.26009e-06, No Iterations 1
DILUPBiCG:  Solving for k, Initial residual = 0.00489416, Final residual = 1.38124e-06, No Iterations 2
ExecutionTime = 15.13 s  ClockTime = 16 s

End

