/*---------------------------------------------------------------------------*\
| =========                 |                                                 |
| \\      /  F ield         | OpenFOAM: The Open Source CFD Toolbox           |
|  \\    /   O peration     | Version:  2.3.1                                 |
|   \\  /    A nd           | Web:      www.OpenFOAM.org                      |
|    \\/     M anipulation  |                                                 |
\*---------------------------------------------------------------------------*/
Build  : 2.3.1-262087cdf8db
Exec   : pimpleDyMFoam
Date   : Jun 06 2023
Time   : 01:21:33
Host   : "jcosson-VirtualBox"
PID    : 30060
Case   : /home/jcosson/workspace/henersj_shootingdata/calcs/moderate_deformed/primal/100_intervals_05-06-23/sweep34/interval90
nProcs : 1
sigFpe : Enabling floating point exception trapping (FOAM_SIGFPE).
fileModificationChecking : Monitoring run-time modified files using timeStampMaster
allowSystemOperations : Allowing user-supplied system call operations

// * * * * * * * * * * * * * * * * * * * * * * * * * * * * * * * * * * * * * //
Create time

Create mesh for time = 0.489

Selecting dynamicFvMesh dynamicMotionSolverFvMesh
Selecting motion solver: displacementLaplacian
Selecting motion diffusion: quadratic
Selecting motion diffusion: quadratic
Selecting motion diffusion: inverseDistance

PIMPLE: no residual control data found. Calculations will employ 3 corrector loops

Reading field p

Reading field U

Reading/calculating face flux field phi

Selecting incompressible transport model Newtonian
Selecting turbulence model type RASModel
Selecting RAS turbulence model kOmegaSST
bounding k, min: 0 max: 0.000640532 average: 0.000155368
kOmegaSSTCoeffs
{
    alphaK1         0.85034;
    alphaK2         1;
    alphaOmega1     0.5;
    alphaOmega2     0.85616;
    gamma1          0.5532;
    gamma2          0.4403;
    beta1           0.075;
    beta2           0.0828;
    betaStar        0.09;
    a1              0.31;
    c1              10;
    Cmu             0.09;
    b1              1;
    F3              false;
}

Reading/calculating face velocity Uf

No finite volume options present

Courant Number mean: 0.119435 max: 0.272395

Starting time loop

Courant Number mean: 0.119435 max: 0.272395
Time = 0.49

GAMG:  Solving for cellDisplacementx, Initial residual = 0, Final residual = 0, No Iterations 0
GAMG:  Solving for cellDisplacementy, Initial residual = 0, Final residual = 0, No Iterations 0
GAMG:  Solving for cellDisplacementz, Initial residual = 0, Final residual = 0, No Iterations 0
PIMPLE: iteration 1
DILUPBiCG:  Solving for Ux, Initial residual = 0.0546, Final residual = 0.000200923, No Iterations 1
DILUPBiCG:  Solving for Uy, Initial residual = 0.0109787, Final residual = 2.19645e-05, No Iterations 1
DILUPBiCG:  Solving for Uz, Initial residual = 0.0154256, Final residual = 1.30729e-05, No Iterations 1
GAMG:  Solving for p, Initial residual = 0.115482, Final residual = 0.000774729, No Iterations 4
GAMG:  Solving for p, Initial residual = 0.0162115, Final residual = 0.000158322, No Iterations 16
GAMG:  Solving for p, Initial residual = 0.00774892, Final residual = 7.53271e-05, No Iterations 4
time step continuity errors : sum local = 8.17876e-07, global = 2.68921e-07, cumulative = 2.68921e-07
GAMG:  Solving for p, Initial residual = 0.0521956, Final residual = 0.000329115, No Iterations 4
GAMG:  Solving for p, Initial residual = 0.00799262, Final residual = 6.90039e-05, No Iterations 16
GAMG:  Solving for p, Initial residual = 0.00390947, Final residual = 3.75429e-05, No Iterations 4
time step continuity errors : sum local = 4.10781e-07, global = 1.46427e-07, cumulative = 4.15348e-07
PIMPLE: iteration 2
DILUPBiCG:  Solving for Ux, Initial residual = 0.0140328, Final residual = 7.96293e-05, No Iterations 1
DILUPBiCG:  Solving for Uy, Initial residual = 0.0029184, Final residual = 5.8378e-06, No Iterations 1
DILUPBiCG:  Solving for Uz, Initial residual = 0.00267236, Final residual = 7.3542e-06, No Iterations 1
GAMG:  Solving for p, Initial residual = 0.0509567, Final residual = 0.000494089, No Iterations 4
GAMG:  Solving for p, Initial residual = 0.0105993, Final residual = 0.000104055, No Iterations 14
GAMG:  Solving for p, Initial residual = 0.00479141, Final residual = 4.56239e-05, No Iterations 4
time step continuity errors : sum local = 4.3535e-07, global = -1.62696e-07, cumulative = 2.52651e-07
GAMG:  Solving for p, Initial residual = 0.0267723, Final residual = 0.00023812, No Iterations 4
GAMG:  Solving for p, Initial residual = 0.00549925, Final residual = 5.45933e-05, No Iterations 12
GAMG:  Solving for p, Initial residual = 0.0023578, Final residual = 2.19284e-05, No Iterations 4
time step continuity errors : sum local = 2.09698e-07, global = -7.75104e-08, cumulative = 1.75141e-07
PIMPLE: iteration 3
DILUPBiCG:  Solving for Ux, Initial residual = 0.0029343, Final residual = 2.41559e-06, No Iterations 2
DILUPBiCG:  Solving for Uy, Initial residual = 0.000664306, Final residual = 4.83719e-06, No Iterations 1
DILUPBiCG:  Solving for Uz, Initial residual = 0.00505606, Final residual = 1.74077e-06, No Iterations 2
GAMG:  Solving for p, Initial residual = 0.0460272, Final residual = 0.000336956, No Iterations 5
GAMG:  Solving for p, Initial residual = 0.0104604, Final residual = 9.8139e-05, No Iterations 14
GAMG:  Solving for p, Initial residual = 0.00543067, Final residual = 4.94376e-05, No Iterations 10
time step continuity errors : sum local = 5.27407e-07, global = -1.38926e-07, cumulative = 3.62147e-08
GAMG:  Solving for p, Initial residual = 0.00260617, Final residual = 2.2888e-05, No Iterations 7
GAMG:  Solving for p, Initial residual = 0.0013806, Final residual = 1.30888e-05, No Iterations 4
GAMG:  Solving for p, Initial residual = 0.000569089, Final residual = 8.79567e-07, No Iterations 30
time step continuity errors : sum local = 9.26698e-09, global = 2.81366e-09, cumulative = 3.90283e-08
DILUPBiCG:  Solving for omega, Initial residual = 0.00127174, Final residual = 7.57352e-07, No Iterations 1
DILUPBiCG:  Solving for k, Initial residual = 0.00364721, Final residual = 5.96724e-07, No Iterations 2
bounding k, min: 0 max: 0.000623312 average: 0.000154409
ExecutionTime = 14.35 s  ClockTime = 15 s

End

