/*---------------------------------------------------------------------------*\
| =========                 |                                                 |
| \\      /  F ield         | OpenFOAM: The Open Source CFD Toolbox           |
|  \\    /   O peration     | Version:  2.3.1                                 |
|   \\  /    A nd           | Web:      www.OpenFOAM.org                      |
|    \\/     M anipulation  |                                                 |
\*---------------------------------------------------------------------------*/
Build  : 2.3.1-262087cdf8db
Exec   : pimpleDyMFoam
Date   : Jun 04 2023
Time   : 16:55:13
Host   : "jcosson-VirtualBox"
PID    : 4187
Case   : /home/jcosson/workspace/henersj_shootingdata/calcs/moderate_deformed/primal/10_intervals_04-06-23/sweep4/interval5
nProcs : 1
sigFpe : Enabling floating point exception trapping (FOAM_SIGFPE).
fileModificationChecking : Monitoring run-time modified files using timeStampMaster
allowSystemOperations : Allowing user-supplied system call operations

// * * * * * * * * * * * * * * * * * * * * * * * * * * * * * * * * * * * * * //
Create time

Create mesh for time = 0.44

Selecting dynamicFvMesh dynamicMotionSolverFvMesh
Selecting motion solver: displacementLaplacian
Selecting motion diffusion: quadratic
Selecting motion diffusion: quadratic
Selecting motion diffusion: inverseDistance

PIMPLE: no residual control data found. Calculations will employ 3 corrector loops

Reading field p

Reading field U

Reading/calculating face flux field phi

Selecting incompressible transport model Newtonian
Selecting turbulence model type RASModel
Selecting RAS turbulence model kOmegaSST
kOmegaSSTCoeffs
{
    alphaK1         0.85034;
    alphaK2         1;
    alphaOmega1     0.5;
    alphaOmega2     0.85616;
    gamma1          0.5532;
    gamma2          0.4403;
    beta1           0.075;
    beta2           0.0828;
    betaStar        0.09;
    a1              0.31;
    c1              10;
    Cmu             0.09;
    b1              1;
    F3              false;
}

Reading/calculating face velocity Uf

No finite volume options present

Courant Number mean: 0.262352 max: 0.576741

Starting time loop

Courant Number mean: 0.262352 max: 0.576741
Time = 0.441

GAMG:  Solving for cellDisplacementx, Initial residual = 0, Final residual = 0, No Iterations 0
GAMG:  Solving for cellDisplacementy, Initial residual = 0, Final residual = 0, No Iterations 0
GAMG:  Solving for cellDisplacementz, Initial residual = 0, Final residual = 0, No Iterations 0
PIMPLE: iteration 1
DILUPBiCG:  Solving for Ux, Initial residual = 0.0273971, Final residual = 9.18225e-05, No Iterations 1
DILUPBiCG:  Solving for Uy, Initial residual = 0.0042744, Final residual = 1.17644e-05, No Iterations 1
DILUPBiCG:  Solving for Uz, Initial residual = 0.0107255, Final residual = 2.04883e-05, No Iterations 1
GAMG:  Solving for p, Initial residual = 0.116833, Final residual = 0.000848363, No Iterations 4
GAMG:  Solving for p, Initial residual = 0.0165872, Final residual = 0.000154052, No Iterations 14
GAMG:  Solving for p, Initial residual = 0.00717272, Final residual = 6.11834e-05, No Iterations 12
time step continuity errors : sum local = 5.96936e-07, global = -1.79147e-07, cumulative = -1.79147e-07
GAMG:  Solving for p, Initial residual = 0.052262, Final residual = 0.000327246, No Iterations 4
GAMG:  Solving for p, Initial residual = 0.00812357, Final residual = 7.78975e-05, No Iterations 12
GAMG:  Solving for p, Initial residual = 0.00359125, Final residual = 3.11022e-05, No Iterations 12
time step continuity errors : sum local = 3.04101e-07, global = -9.10451e-08, cumulative = -2.70192e-07
PIMPLE: iteration 2
DILUPBiCG:  Solving for Ux, Initial residual = 0.00765947, Final residual = 2.97386e-05, No Iterations 1
DILUPBiCG:  Solving for Uy, Initial residual = 0.0012272, Final residual = 6.19354e-06, No Iterations 1
DILUPBiCG:  Solving for Uz, Initial residual = 0.00297109, Final residual = 9.34236e-06, No Iterations 1
GAMG:  Solving for p, Initial residual = 0.0521098, Final residual = 0.00051692, No Iterations 5
GAMG:  Solving for p, Initial residual = 0.0126303, Final residual = 0.000123729, No Iterations 11
GAMG:  Solving for p, Initial residual = 0.00462464, Final residual = 4.15299e-05, No Iterations 14
time step continuity errors : sum local = 3.45982e-07, global = 1.05684e-07, cumulative = -1.64508e-07
GAMG:  Solving for p, Initial residual = 0.0274311, Final residual = 0.000252441, No Iterations 4
GAMG:  Solving for p, Initial residual = 0.00599001, Final residual = 5.33302e-05, No Iterations 12
GAMG:  Solving for p, Initial residual = 0.00221512, Final residual = 2.09094e-05, No Iterations 12
time step continuity errors : sum local = 1.75301e-07, global = 5.07336e-08, cumulative = -1.13774e-07
PIMPLE: iteration 3
DILUPBiCG:  Solving for Ux, Initial residual = 0.00167525, Final residual = 5.78966e-07, No Iterations 2
DILUPBiCG:  Solving for Uy, Initial residual = 0.000273403, Final residual = 8.52294e-06, No Iterations 1
DILUPBiCG:  Solving for Uz, Initial residual = 0.00505505, Final residual = 3.35256e-06, No Iterations 2
GAMG:  Solving for p, Initial residual = 0.047531, Final residual = 0.000379808, No Iterations 5
GAMG:  Solving for p, Initial residual = 0.0127592, Final residual = 0.000125632, No Iterations 10
GAMG:  Solving for p, Initial residual = 0.00549434, Final residual = 5.08251e-05, No Iterations 12
time step continuity errors : sum local = 4.7112e-07, global = 1.39945e-07, cumulative = 2.61707e-08
GAMG:  Solving for p, Initial residual = 0.00338757, Final residual = 3.01101e-05, No Iterations 16
GAMG:  Solving for p, Initial residual = 0.00200388, Final residual = 1.51036e-05, No Iterations 4
GAMG:  Solving for p, Initial residual = 0.000680341, Final residual = 9.73576e-07, No Iterations 38
time step continuity errors : sum local = 8.98803e-09, global = -2.65198e-09, cumulative = 2.35187e-08
DILUPBiCG:  Solving for omega, Initial residual = 0.00112061, Final residual = 1.37319e-06, No Iterations 1
DILUPBiCG:  Solving for k, Initial residual = 0.00640022, Final residual = 1.22668e-06, No Iterations 2
ExecutionTime = 8.6 s  ClockTime = 8 s

Courant Number mean: 0.26561 max: 0.584527
Time = 0.442

GAMG:  Solving for cellDisplacementx, Initial residual = 0, Final residual = 0, No Iterations 0
GAMG:  Solving for cellDisplacementy, Initial residual = 0, Final residual = 0, No Iterations 0
GAMG:  Solving for cellDisplacementz, Initial residual = 0, Final residual = 0, No Iterations 0
PIMPLE: iteration 1
DILUPBiCG:  Solving for Ux, Initial residual = 0.0248853, Final residual = 8.44659e-05, No Iterations 1
DILUPBiCG:  Solving for Uy, Initial residual = 0.00385032, Final residual = 1.08989e-05, No Iterations 1
DILUPBiCG:  Solving for Uz, Initial residual = 0.00994147, Final residual = 1.99719e-05, No Iterations 1
GAMG:  Solving for p, Initial residual = 0.100384, Final residual = 0.000753368, No Iterations 4
GAMG:  Solving for p, Initial residual = 0.0135833, Final residual = 0.000122644, No Iterations 16
GAMG:  Solving for p, Initial residual = 0.0061719, Final residual = 5.6234e-05, No Iterations 10
time step continuity errors : sum local = 5.0893e-07, global = -1.35457e-07, cumulative = -1.11938e-07
GAMG:  Solving for p, Initial residual = 0.0452867, Final residual = 0.000292514, No Iterations 4
GAMG:  Solving for p, Initial residual = 0.00660691, Final residual = 6.0824e-05, No Iterations 14
GAMG:  Solving for p, Initial residual = 0.00304941, Final residual = 2.95384e-05, No Iterations 10
time step continuity errors : sum local = 2.67662e-07, global = -7.24957e-08, cumulative = -1.84434e-07
PIMPLE: iteration 2
DILUPBiCG:  Solving for Ux, Initial residual = 0.00691279, Final residual = 2.71292e-05, No Iterations 1
DILUPBiCG:  Solving for Uy, Initial residual = 0.00110871, Final residual = 6.16177e-06, No Iterations 1
DILUPBiCG:  Solving for Uz, Initial residual = 0.00294104, Final residual = 9.67537e-06, No Iterations 1
GAMG:  Solving for p, Initial residual = 0.0439923, Final residual = 0.000333271, No Iterations 6
GAMG:  Solving for p, Initial residual = 0.0111991, Final residual = 9.86871e-05, No Iterations 14
GAMG:  Solving for p, Initial residual = 0.00384925, Final residual = 3.33972e-05, No Iterations 14
time step continuity errors : sum local = 2.57709e-07, global = 7.97953e-08, cumulative = -1.04639e-07
GAMG:  Solving for p, Initial residual = 0.0231803, Final residual = 0.000219386, No Iterations 5
GAMG:  Solving for p, Initial residual = 0.00533042, Final residual = 5.08079e-05, No Iterations 11
GAMG:  Solving for p, Initial residual = 0.00172667, Final residual = 1.48467e-05, No Iterations 16
time step continuity errors : sum local = 1.15456e-07, global = 3.46569e-08, cumulative = -6.99817e-08
PIMPLE: iteration 3
DILUPBiCG:  Solving for Ux, Initial residual = 0.00147734, Final residual = 9.69129e-06, No Iterations 1
DILUPBiCG:  Solving for Uy, Initial residual = 0.0002434, Final residual = 8.34255e-06, No Iterations 1
DILUPBiCG:  Solving for Uz, Initial residual = 0.00433025, Final residual = 1.59743e-06, No Iterations 2
GAMG:  Solving for p, Initial residual = 0.047611, Final residual = 0.000383186, No Iterations 5
GAMG:  Solving for p, Initial residual = 0.0129219, Final residual = 0.000110239, No Iterations 12
GAMG:  Solving for p, Initial residual = 0.00571789, Final residual = 5.56867e-05, No Iterations 10
time step continuity errors : sum local = 4.77575e-07, global = 1.26814e-07, cumulative = 5.68319e-08
GAMG:  Solving for p, Initial residual = 0.00341354, Final residual = 2.94383e-05, No Iterations 16
GAMG:  Solving for p, Initial residual = 0.00204469, Final residual = 1.54235e-05, No Iterations 4
GAMG:  Solving for p, Initial residual = 0.000699279, Final residual = 9.6424e-07, No Iterations 38
time step continuity errors : sum local = 8.23746e-09, global = -2.4294e-09, cumulative = 5.44025e-08
DILUPBiCG:  Solving for omega, Initial residual = 0.00114364, Final residual = 1.42369e-06, No Iterations 1
DILUPBiCG:  Solving for k, Initial residual = 0.00639311, Final residual = 1.14564e-06, No Iterations 2
ExecutionTime = 16.22 s  ClockTime = 16 s

Courant Number mean: 0.268559 max: 0.591622
Time = 0.443

GAMG:  Solving for cellDisplacementx, Initial residual = 0, Final residual = 0, No Iterations 0
GAMG:  Solving for cellDisplacementy, Initial residual = 0, Final residual = 0, No Iterations 0
GAMG:  Solving for cellDisplacementz, Initial residual = 0, Final residual = 0, No Iterations 0
PIMPLE: iteration 1
DILUPBiCG:  Solving for Ux, Initial residual = 0.0223045, Final residual = 7.6971e-05, No Iterations 1
DILUPBiCG:  Solving for Uy, Initial residual = 0.00346051, Final residual = 1.02006e-05, No Iterations 1
DILUPBiCG:  Solving for Uz, Initial residual = 0.00910666, Final residual = 2.0273e-05, No Iterations 1
GAMG:  Solving for p, Initial residual = 0.0993853, Final residual = 0.000699426, No Iterations 4
GAMG:  Solving for p, Initial residual = 0.0135656, Final residual = 0.000117407, No Iterations 16
GAMG:  Solving for p, Initial residual = 0.00619193, Final residual = 5.61956e-05, No Iterations 10
time step continuity errors : sum local = 4.67216e-07, global = -1.26273e-07, cumulative = -7.18706e-08
GAMG:  Solving for p, Initial residual = 0.0450141, Final residual = 0.000273378, No Iterations 4
GAMG:  Solving for p, Initial residual = 0.00660528, Final residual = 5.85659e-05, No Iterations 14
GAMG:  Solving for p, Initial residual = 0.00306542, Final residual = 2.89787e-05, No Iterations 10
time step continuity errors : sum local = 2.41353e-07, global = -6.64052e-08, cumulative = -1.38276e-07
PIMPLE: iteration 2
DILUPBiCG:  Solving for Ux, Initial residual = 0.00616043, Final residual = 2.46751e-05, No Iterations 1
DILUPBiCG:  Solving for Uy, Initial residual = 0.000987418, Final residual = 6.13373e-06, No Iterations 1
DILUPBiCG:  Solving for Uz, Initial residual = 0.00311141, Final residual = 1.06927e-05, No Iterations 1
GAMG:  Solving for p, Initial residual = 0.0435581, Final residual = 0.000340422, No Iterations 6
GAMG:  Solving for p, Initial residual = 0.0121122, Final residual = 0.000116846, No Iterations 12
GAMG:  Solving for p, Initial residual = 0.00401405, Final residual = 3.96077e-05, No Iterations 14
time step continuity errors : sum local = 2.81382e-07, global = 8.61611e-08, cumulative = -5.21147e-08
GAMG:  Solving for p, Initial residual = 0.0230426, Final residual = 0.000223461, No Iterations 5
GAMG:  Solving for p, Initial residual = 0.00579121, Final residual = 5.04395e-05, No Iterations 11
GAMG:  Solving for p, Initial residual = 0.00180705, Final residual = 1.73336e-05, No Iterations 14
time step continuity errors : sum local = 1.2399e-07, global = 3.77729e-08, cumulative = -1.43418e-08
PIMPLE: iteration 3
DILUPBiCG:  Solving for Ux, Initial residual = 0.00128961, Final residual = 8.63303e-06, No Iterations 1
DILUPBiCG:  Solving for Uy, Initial residual = 0.000211639, Final residual = 7.14663e-06, No Iterations 1
DILUPBiCG:  Solving for Uz, Initial residual = 0.00428024, Final residual = 1.53662e-06, No Iterations 2
GAMG:  Solving for p, Initial residual = 0.0488371, Final residual = 0.000386356, No Iterations 5
GAMG:  Solving for p, Initial residual = 0.0133978, Final residual = 0.000114833, No Iterations 12
GAMG:  Solving for p, Initial residual = 0.00585638, Final residual = 5.74543e-05, No Iterations 10
time step continuity errors : sum local = 4.52588e-07, global = 1.20591e-07, cumulative = 1.06249e-07
GAMG:  Solving for p, Initial residual = 0.00354099, Final residual = 3.26259e-05, No Iterations 14
GAMG:  Solving for p, Initial residual = 0.0021336, Final residual = 1.60631e-05, No Iterations 4
GAMG:  Solving for p, Initial residual = 0.000707555, Final residual = 9.73265e-07, No Iterations 38
time step continuity errors : sum local = 7.6368e-09, global = -2.25175e-09, cumulative = 1.03997e-07
DILUPBiCG:  Solving for omega, Initial residual = 0.00116101, Final residual = 1.46779e-06, No Iterations 1
DILUPBiCG:  Solving for k, Initial residual = 0.00635793, Final residual = 1.07253e-06, No Iterations 2
ExecutionTime = 23.66 s  ClockTime = 24 s

Courant Number mean: 0.271193 max: 0.597994
Time = 0.444

GAMG:  Solving for cellDisplacementx, Initial residual = 0, Final residual = 0, No Iterations 0
GAMG:  Solving for cellDisplacementy, Initial residual = 0, Final residual = 0, No Iterations 0
GAMG:  Solving for cellDisplacementz, Initial residual = 0, Final residual = 0, No Iterations 0
PIMPLE: iteration 1
DILUPBiCG:  Solving for Ux, Initial residual = 0.0197502, Final residual = 6.9594e-05, No Iterations 1
DILUPBiCG:  Solving for Uy, Initial residual = 0.00305356, Final residual = 9.42996e-06, No Iterations 1
DILUPBiCG:  Solving for Uz, Initial residual = 0.00973624, Final residual = 2.17013e-05, No Iterations 1
GAMG:  Solving for p, Initial residual = 0.0973414, Final residual = 0.000586424, No Iterations 4
GAMG:  Solving for p, Initial residual = 0.0133198, Final residual = 0.000127226, No Iterations 14
GAMG:  Solving for p, Initial residual = 0.00617609, Final residual = 5.93428e-05, No Iterations 10
time step continuity errors : sum local = 4.46368e-07, global = -1.19199e-07, cumulative = -1.52022e-08
GAMG:  Solving for p, Initial residual = 0.0445764, Final residual = 0.000238516, No Iterations 4
GAMG:  Solving for p, Initial residual = 0.00645267, Final residual = 5.46994e-05, No Iterations 14
GAMG:  Solving for p, Initial residual = 0.0030713, Final residual = 2.60601e-05, No Iterations 10
time step continuity errors : sum local = 1.96691e-07, global = -5.29798e-08, cumulative = -6.8182e-08
PIMPLE: iteration 2
DILUPBiCG:  Solving for Ux, Initial residual = 0.00539994, Final residual = 2.23386e-05, No Iterations 1
DILUPBiCG:  Solving for Uy, Initial residual = 0.000867655, Final residual = 6.18206e-06, No Iterations 1
DILUPBiCG:  Solving for Uz, Initial residual = 0.00316368, Final residual = 1.13541e-05, No Iterations 1
GAMG:  Solving for p, Initial residual = 0.0428522, Final residual = 0.000341049, No Iterations 6
GAMG:  Solving for p, Initial residual = 0.0125343, Final residual = 0.000119597, No Iterations 12
GAMG:  Solving for p, Initial residual = 0.00392854, Final residual = 3.47024e-05, No Iterations 16
time step continuity errors : sum local = 2.23945e-07, global = 6.77996e-08, cumulative = -3.8244e-10
GAMG:  Solving for p, Initial residual = 0.0227161, Final residual = 0.000221436, No Iterations 5
GAMG:  Solving for p, Initial residual = 0.00597488, Final residual = 5.28328e-05, No Iterations 11
GAMG:  Solving for p, Initial residual = 0.00177952, Final residual = 1.53275e-05, No Iterations 16
time step continuity errors : sum local = 9.95912e-08, global = 2.93294e-08, cumulative = 2.89469e-08
PIMPLE: iteration 3
DILUPBiCG:  Solving for Ux, Initial residual = 0.00109208, Final residual = 7.67449e-06, No Iterations 1
DILUPBiCG:  Solving for Uy, Initial residual = 0.000182343, Final residual = 6.35575e-06, No Iterations 1
DILUPBiCG:  Solving for Uz, Initial residual = 0.00364385, Final residual = 1.04785e-06, No Iterations 2
GAMG:  Solving for p, Initial residual = 0.050673, Final residual = 0.000390701, No Iterations 5
GAMG:  Solving for p, Initial residual = 0.0138867, Final residual = 0.000121345, No Iterations 12
GAMG:  Solving for p, Initial residual = 0.00614814, Final residual = 6.12981e-05, No Iterations 10
time step continuity errors : sum local = 4.37469e-07, global = 1.16809e-07, cumulative = 1.45756e-07
GAMG:  Solving for p, Initial residual = 0.00373343, Final residual = 3.56225e-05, No Iterations 6
GAMG:  Solving for p, Initial residual = 0.00215766, Final residual = 1.93669e-05, No Iterations 12
GAMG:  Solving for p, Initial residual = 0.000798561, Final residual = 9.8805e-07, No Iterations 36
time step continuity errors : sum local = 7.02226e-09, global = -2.06165e-09, cumulative = 1.43695e-07
DILUPBiCG:  Solving for omega, Initial residual = 0.00117177, Final residual = 1.5033e-06, No Iterations 1
DILUPBiCG:  Solving for k, Initial residual = 0.00629013, Final residual = 1.01043e-06, No Iterations 2
ExecutionTime = 31.01 s  ClockTime = 31 s

Courant Number mean: 0.273496 max: 0.603627
Time = 0.445

GAMG:  Solving for cellDisplacementx, Initial residual = 0, Final residual = 0, No Iterations 0
GAMG:  Solving for cellDisplacementy, Initial residual = 0, Final residual = 0, No Iterations 0
GAMG:  Solving for cellDisplacementz, Initial residual = 0, Final residual = 0, No Iterations 0
PIMPLE: iteration 1
DILUPBiCG:  Solving for Ux, Initial residual = 0.0171486, Final residual = 6.21569e-05, No Iterations 1
DILUPBiCG:  Solving for Uy, Initial residual = 0.00266248, Final residual = 8.74133e-06, No Iterations 1
DILUPBiCG:  Solving for Uz, Initial residual = 0.00914172, Final residual = 2.17256e-05, No Iterations 1
GAMG:  Solving for p, Initial residual = 0.0959683, Final residual = 0.000501832, No Iterations 4
GAMG:  Solving for p, Initial residual = 0.0131044, Final residual = 0.000117586, No Iterations 14
GAMG:  Solving for p, Initial residual = 0.00621278, Final residual = 5.61575e-05, No Iterations 10
time step continuity errors : sum local = 3.77695e-07, global = -1.01676e-07, cumulative = 4.20184e-08
GAMG:  Solving for p, Initial residual = 0.0442701, Final residual = 0.000204998, No Iterations 4
GAMG:  Solving for p, Initial residual = 0.0063306, Final residual = 6.13217e-05, No Iterations 12
GAMG:  Solving for p, Initial residual = 0.00308091, Final residual = 2.9449e-05, No Iterations 10
time step continuity errors : sum local = 1.98775e-07, global = -5.43433e-08, cumulative = -1.23249e-08
PIMPLE: iteration 2
DILUPBiCG:  Solving for Ux, Initial residual = 0.0046303, Final residual = 2.02408e-05, No Iterations 1
DILUPBiCG:  Solving for Uy, Initial residual = 0.000744574, Final residual = 6.27509e-06, No Iterations 1
DILUPBiCG:  Solving for Uz, Initial residual = 0.00332769, Final residual = 1.27263e-05, No Iterations 1
GAMG:  Solving for p, Initial residual = 0.0423474, Final residual = 0.000348996, No Iterations 6
GAMG:  Solving for p, Initial residual = 0.0140205, Final residual = 0.00011987, No Iterations 12
GAMG:  Solving for p, Initial residual = 0.00426694, Final residual = 4.11449e-05, No Iterations 14
time step continuity errors : sum local = 2.37974e-07, global = 7.26008e-08, cumulative = 6.0276e-08
GAMG:  Solving for p, Initial residual = 0.0225018, Final residual = 0.000147307, No Iterations 6
GAMG:  Solving for p, Initial residual = 0.00663346, Final residual = 5.85234e-05, No Iterations 10
GAMG:  Solving for p, Initial residual = 0.00180844, Final residual = 1.64704e-05, No Iterations 16
time step continuity errors : sum local = 9.59321e-08, global = 2.82248e-08, cumulative = 8.85007e-08
PIMPLE: iteration 3
DILUPBiCG:  Solving for Ux, Initial residual = 0.000900114, Final residual = 6.95658e-06, No Iterations 1
DILUPBiCG:  Solving for Uy, Initial residual = 0.000150804, Final residual = 4.87145e-06, No Iterations 1
DILUPBiCG:  Solving for Uz, Initial residual = 0.0034689, Final residual = 1.00269e-06, No Iterations 2
GAMG:  Solving for p, Initial residual = 0.0528531, Final residual = 0.000396278, No Iterations 5
GAMG:  Solving for p, Initial residual = 0.0145263, Final residual = 0.000128645, No Iterations 12
GAMG:  Solving for p, Initial residual = 0.00645519, Final residual = 6.43893e-05, No Iterations 10
time step continuity errors : sum local = 4.10806e-07, global = 1.10256e-07, cumulative = 1.98757e-07
GAMG:  Solving for p, Initial residual = 0.00394327, Final residual = 2.5699e-05, No Iterations 6
GAMG:  Solving for p, Initial residual = 0.00242541, Final residual = 2.05528e-05, No Iterations 4
GAMG:  Solving for p, Initial residual = 0.000771158, Final residual = 8.58607e-07, No Iterations 35
time step continuity errors : sum local = 5.45513e-09, global = -1.60422e-09, cumulative = 1.97153e-07
DILUPBiCG:  Solving for omega, Initial residual = 0.00117518, Final residual = 1.52971e-06, No Iterations 1
DILUPBiCG:  Solving for k, Initial residual = 0.00619474, Final residual = 9.64274e-07, No Iterations 2
ExecutionTime = 38.21 s  ClockTime = 38 s

Courant Number mean: 0.275463 max: 0.608494
Time = 0.446

GAMG:  Solving for cellDisplacementx, Initial residual = 0, Final residual = 0, No Iterations 0
GAMG:  Solving for cellDisplacementy, Initial residual = 0, Final residual = 0, No Iterations 0
GAMG:  Solving for cellDisplacementz, Initial residual = 0, Final residual = 0, No Iterations 0
PIMPLE: iteration 1
DILUPBiCG:  Solving for Ux, Initial residual = 0.0145639, Final residual = 5.49113e-05, No Iterations 1
DILUPBiCG:  Solving for Uy, Initial residual = 0.00226098, Final residual = 8.03628e-06, No Iterations 1
DILUPBiCG:  Solving for Uz, Initial residual = 0.00977732, Final residual = 2.29814e-05, No Iterations 1
GAMG:  Solving for p, Initial residual = 0.0938643, Final residual = 0.000367937, No Iterations 4
GAMG:  Solving for p, Initial residual = 0.0126503, Final residual = 0.000109344, No Iterations 14
GAMG:  Solving for p, Initial residual = 0.00642337, Final residual = 5.64284e-05, No Iterations 4
time step continuity errors : sum local = 3.32232e-07, global = -1.19047e-07, cumulative = 7.81053e-08
GAMG:  Solving for p, Initial residual = 0.0439057, Final residual = 0.000432827, No Iterations 3
GAMG:  Solving for p, Initial residual = 0.00617797, Final residual = 5.51653e-05, No Iterations 13
GAMG:  Solving for p, Initial residual = 0.00319279, Final residual = 3.15486e-05, No Iterations 8
time step continuity errors : sum local = 1.86657e-07, global = -4.16795e-08, cumulative = 3.64258e-08
PIMPLE: iteration 2
DILUPBiCG:  Solving for Ux, Initial residual = 0.00386163, Final residual = 1.85116e-05, No Iterations 1
DILUPBiCG:  Solving for Uy, Initial residual = 0.000623673, Final residual = 6.49722e-06, No Iterations 1
DILUPBiCG:  Solving for Uz, Initial residual = 0.00338236, Final residual = 1.35463e-05, No Iterations 1
GAMG:  Solving for p, Initial residual = 0.0416979, Final residual = 0.000352024, No Iterations 6
GAMG:  Solving for p, Initial residual = 0.015332, Final residual = 0.000147258, No Iterations 10
GAMG:  Solving for p, Initial residual = 0.00416515, Final residual = 3.57905e-05, No Iterations 18
time step continuity errors : sum local = 1.82382e-07, global = 5.24861e-08, cumulative = 8.8912e-08
GAMG:  Solving for p, Initial residual = 0.0220547, Final residual = 0.000148177, No Iterations 6
GAMG:  Solving for p, Initial residual = 0.00713182, Final residual = 5.95629e-05, No Iterations 10
GAMG:  Solving for p, Initial residual = 0.00184682, Final residual = 1.67906e-05, No Iterations 16
time step continuity errors : sum local = 8.60424e-08, global = 2.49287e-08, cumulative = 1.13841e-07
PIMPLE: iteration 3
DILUPBiCG:  Solving for Ux, Initial residual = 0.000706234, Final residual = 6.26574e-06, No Iterations 1
DILUPBiCG:  Solving for Uy, Initial residual = 0.000122123, Final residual = 3.52281e-06, No Iterations 1
DILUPBiCG:  Solving for Uz, Initial residual = 0.00290787, Final residual = 9.76759e-07, No Iterations 2
GAMG:  Solving for p, Initial residual = 0.0559871, Final residual = 0.000403883, No Iterations 5
GAMG:  Solving for p, Initial residual = 0.0152122, Final residual = 0.000137622, No Iterations 12
GAMG:  Solving for p, Initial residual = 0.00694912, Final residual = 6.88218e-05, No Iterations 10
time step continuity errors : sum local = 3.8452e-07, global = 1.03365e-07, cumulative = 2.17205e-07
GAMG:  Solving for p, Initial residual = 0.00422877, Final residual = 3.77517e-05, No Iterations 6
GAMG:  Solving for p, Initial residual = 0.00258149, Final residual = 1.82684e-05, No Iterations 5
GAMG:  Solving for p, Initial residual = 0.000820152, Final residual = 8.80262e-07, No Iterations 36
time step continuity errors : sum local = 4.89317e-09, global = -1.43685e-09, cumulative = 2.15769e-07
DILUPBiCG:  Solving for omega, Initial residual = 0.00117082, Final residual = 1.54543e-06, No Iterations 1
DILUPBiCG:  Solving for k, Initial residual = 0.0060817, Final residual = 9.35131e-07, No Iterations 2
ExecutionTime = 45.24 s  ClockTime = 45 s

Courant Number mean: 0.277084 max: 0.612564
Time = 0.447

GAMG:  Solving for cellDisplacementx, Initial residual = 0, Final residual = 0, No Iterations 0
GAMG:  Solving for cellDisplacementy, Initial residual = 0, Final residual = 0, No Iterations 0
GAMG:  Solving for cellDisplacementz, Initial residual = 0, Final residual = 0, No Iterations 0
PIMPLE: iteration 1
DILUPBiCG:  Solving for Ux, Initial residual = 0.0119505, Final residual = 4.78464e-05, No Iterations 1
DILUPBiCG:  Solving for Uy, Initial residual = 0.00187063, Final residual = 7.44721e-06, No Iterations 1
DILUPBiCG:  Solving for Uz, Initial residual = 0.00952509, Final residual = 2.32085e-05, No Iterations 1
GAMG:  Solving for p, Initial residual = 0.0920935, Final residual = 0.000331968, No Iterations 4
GAMG:  Solving for p, Initial residual = 0.0126981, Final residual = 0.000112836, No Iterations 5
GAMG:  Solving for p, Initial residual = 0.00582924, Final residual = 4.09262e-05, No Iterations 4
time step continuity errors : sum local = 2.07051e-07, global = 3.14231e-08, cumulative = 2.47192e-07
GAMG:  Solving for p, Initial residual = 0.0436024, Final residual = 0.000137095, No Iterations 4
GAMG:  Solving for p, Initial residual = 0.00612068, Final residual = 2.59264e-05, No Iterations 5
GAMG:  Solving for p, Initial residual = 0.00278546, Final residual = 2.15469e-05, No Iterations 5
time step continuity errors : sum local = 1.09099e-07, global = -2.18364e-08, cumulative = 2.25355e-07
PIMPLE: iteration 2
DILUPBiCG:  Solving for Ux, Initial residual = 0.00307615, Final residual = 1.72245e-05, No Iterations 1
DILUPBiCG:  Solving for Uy, Initial residual = 0.000499382, Final residual = 6.8288e-06, No Iterations 1
DILUPBiCG:  Solving for Uz, Initial residual = 0.00352175, Final residual = 1.57397e-05, No Iterations 1
GAMG:  Solving for p, Initial residual = 0.0412857, Final residual = 0.000363835, No Iterations 6
GAMG:  Solving for p, Initial residual = 0.0178183, Final residual = 0.000150699, No Iterations 10
GAMG:  Solving for p, Initial residual = 0.00462403, Final residual = 4.26456e-05, No Iterations 16
time step continuity errors : sum local = 1.86878e-07, global = 5.42345e-08, cumulative = 2.7959e-07
GAMG:  Solving for p, Initial residual = 0.0217994, Final residual = 0.000153921, No Iterations 6
GAMG:  Solving for p, Initial residual = 0.00823517, Final residual = 7.463e-05, No Iterations 8
GAMG:  Solving for p, Initial residual = 0.00198519, Final residual = 1.72797e-05, No Iterations 18
time step continuity errors : sum local = 7.61751e-08, global = 2.16882e-08, cumulative = 3.01278e-07
PIMPLE: iteration 3
DILUPBiCG:  Solving for Ux, Initial residual = 0.000510482, Final residual = 5.34526e-06, No Iterations 1
DILUPBiCG:  Solving for Uy, Initial residual = 9.06706e-05, Final residual = 1.92776e-06, No Iterations 1
DILUPBiCG:  Solving for Uz, Initial residual = 0.00265627, Final residual = 3.52931e-06, No Iterations 2
GAMG:  Solving for p, Initial residual = 0.0602605, Final residual = 0.00040935, No Iterations 5
GAMG:  Solving for p, Initial residual = 0.015912, Final residual = 0.000149486, No Iterations 12
GAMG:  Solving for p, Initial residual = 0.00765232, Final residual = 7.3791e-05, No Iterations 10
time step continuity errors : sum local = 3.5268e-07, global = 9.53499e-08, cumulative = 3.96628e-07
GAMG:  Solving for p, Initial residual = 0.0045722, Final residual = 4.13027e-05, No Iterations 9
GAMG:  Solving for p, Initial residual = 0.00276094, Final residual = 2.35649e-05, No Iterations 4
GAMG:  Solving for p, Initial residual = 0.000854361, Final residual = 9.19231e-07, No Iterations 42
time step continuity errors : sum local = 4.36432e-09, global = -1.29277e-09, cumulative = 3.95335e-07
DILUPBiCG:  Solving for omega, Initial residual = 0.00115877, Final residual = 1.55012e-06, No Iterations 1
DILUPBiCG:  Solving for k, Initial residual = 0.00594606, Final residual = 9.2062e-07, No Iterations 2
ExecutionTime = 51.95 s  ClockTime = 52 s

Courant Number mean: 0.278354 max: 0.61581
Time = 0.448

GAMG:  Solving for cellDisplacementx, Initial residual = 0, Final residual = 0, No Iterations 0
GAMG:  Solving for cellDisplacementy, Initial residual = 0, Final residual = 0, No Iterations 0
GAMG:  Solving for cellDisplacementz, Initial residual = 0, Final residual = 0, No Iterations 0
PIMPLE: iteration 1
DILUPBiCG:  Solving for Ux, Initial residual = 0.00935745, Final residual = 4.13408e-05, No Iterations 1
DILUPBiCG:  Solving for Uy, Initial residual = 0.00147773, Final residual = 6.98509e-06, No Iterations 1
DILUPBiCG:  Solving for Uz, Initial residual = 0.0101328, Final residual = 2.43567e-05, No Iterations 1
GAMG:  Solving for p, Initial residual = 0.0901273, Final residual = 0.000805375, No Iterations 3
GAMG:  Solving for p, Initial residual = 0.0137192, Final residual = 0.000120694, No Iterations 4
GAMG:  Solving for p, Initial residual = 0.00594811, Final residual = 3.81027e-05, No Iterations 4
time step continuity errors : sum local = 1.59298e-07, global = 3.78629e-08, cumulative = 4.33198e-07
GAMG:  Solving for p, Initial residual = 0.0436167, Final residual = 0.000339866, No Iterations 3
GAMG:  Solving for p, Initial residual = 0.00668513, Final residual = 5.56004e-05, No Iterations 4
GAMG:  Solving for p, Initial residual = 0.00286361, Final residual = 1.84245e-05, No Iterations 4
time step continuity errors : sum local = 7.7223e-08, global = 1.50758e-08, cumulative = 4.48274e-07
PIMPLE: iteration 2
DILUPBiCG:  Solving for Ux, Initial residual = 0.00229923, Final residual = 1.63936e-05, No Iterations 1
DILUPBiCG:  Solving for Uy, Initial residual = 0.000378295, Final residual = 7.43366e-06, No Iterations 1
DILUPBiCG:  Solving for Uz, Initial residual = 0.00359339, Final residual = 1.77983e-05, No Iterations 1
GAMG:  Solving for p, Initial residual = 0.0410875, Final residual = 0.000378594, No Iterations 6
GAMG:  Solving for p, Initial residual = 0.0204134, Final residual = 0.000192805, No Iterations 8
GAMG:  Solving for p, Initial residual = 0.00479193, Final residual = 4.50611e-05, No Iterations 18
time step continuity errors : sum local = 1.64844e-07, global = 4.69878e-08, cumulative = 4.95262e-07
GAMG:  Solving for p, Initial residual = 0.0216306, Final residual = 0.000160365, No Iterations 6
GAMG:  Solving for p, Initial residual = 0.00931359, Final residual = 7.98678e-05, No Iterations 8
GAMG:  Solving for p, Initial residual = 0.00215863, Final residual = 2.15356e-05, No Iterations 16
time step continuity errors : sum local = 7.91274e-08, global = 2.27036e-08, cumulative = 5.17965e-07
PIMPLE: iteration 3
DILUPBiCG:  Solving for Ux, Initial residual = 0.000317289, Final residual = 3.90189e-06, No Iterations 1
DILUPBiCG:  Solving for Uy, Initial residual = 6.20068e-05, Final residual = 8.18469e-07, No Iterations 1
DILUPBiCG:  Solving for Uz, Initial residual = 0.00222696, Final residual = 4.75747e-07, No Iterations 2
GAMG:  Solving for p, Initial residual = 0.0665336, Final residual = 0.000410834, No Iterations 5
GAMG:  Solving for p, Initial residual = 0.0168466, Final residual = 0.000163589, No Iterations 12
GAMG:  Solving for p, Initial residual = 0.00884106, Final residual = 7.95356e-05, No Iterations 10
time step continuity errors : sum local = 3.13762e-07, global = 8.5052e-08, cumulative = 6.03017e-07
GAMG:  Solving for p, Initial residual = 0.00512267, Final residual = 5.08916e-05, No Iterations 7
GAMG:  Solving for p, Initial residual = 0.00308398, Final residual = 3.01886e-05, No Iterations 6
GAMG:  Solving for p, Initial residual = 0.000951309, Final residual = 9.66187e-07, No Iterations 42
time step continuity errors : sum local = 3.78087e-09, global = -1.12203e-09, cumulative = 6.01895e-07
DILUPBiCG:  Solving for omega, Initial residual = 0.00113923, Final residual = 1.54394e-06, No Iterations 1
DILUPBiCG:  Solving for k, Initial residual = 0.005785, Final residual = 9.09636e-07, No Iterations 2
ExecutionTime = 58.15 s  ClockTime = 58 s

Courant Number mean: 0.279267 max: 0.618247
Time = 0.449

GAMG:  Solving for cellDisplacementx, Initial residual = 0, Final residual = 0, No Iterations 0
GAMG:  Solving for cellDisplacementy, Initial residual = 0, Final residual = 0, No Iterations 0
GAMG:  Solving for cellDisplacementz, Initial residual = 0, Final residual = 0, No Iterations 0
PIMPLE: iteration 1
DILUPBiCG:  Solving for Ux, Initial residual = 0.00677546, Final residual = 3.59029e-05, No Iterations 1
DILUPBiCG:  Solving for Uy, Initial residual = 0.00109602, Final residual = 6.93516e-06, No Iterations 1
DILUPBiCG:  Solving for Uz, Initial residual = 0.0102495, Final residual = 2.51474e-05, No Iterations 1
GAMG:  Solving for p, Initial residual = 0.0884524, Final residual = 0.000437074, No Iterations 4
GAMG:  Solving for p, Initial residual = 0.0192119, Final residual = 0.000172115, No Iterations 10
GAMG:  Solving for p, Initial residual = 0.00804643, Final residual = 7.15207e-05, No Iterations 10
time step continuity errors : sum local = 2.3532e-07, global = 6.26384e-08, cumulative = 6.64534e-07
GAMG:  Solving for p, Initial residual = 0.044128, Final residual = 0.000187484, No Iterations 4
GAMG:  Solving for p, Initial residual = 0.00928869, Final residual = 7.73446e-05, No Iterations 10
GAMG:  Solving for p, Initial residual = 0.00377818, Final residual = 3.17621e-05, No Iterations 10
time step continuity errors : sum local = 1.0467e-07, global = 2.78137e-08, cumulative = 6.92347e-07
PIMPLE: iteration 2
DILUPBiCG:  Solving for Ux, Initial residual = 0.00152441, Final residual = 1.50764e-05, No Iterations 1
DILUPBiCG:  Solving for Uy, Initial residual = 0.000258228, Final residual = 8.14563e-06, No Iterations 1
DILUPBiCG:  Solving for Uz, Initial residual = 0.0036451, Final residual = 2.35634e-05, No Iterations 1
GAMG:  Solving for p, Initial residual = 0.0416114, Final residual = 0.000342032, No Iterations 6
GAMG:  Solving for p, Initial residual = 0.0238783, Final residual = 0.000235445, No Iterations 6
GAMG:  Solving for p, Initial residual = 0.00520577, Final residual = 4.48043e-05, No Iterations 20
time step continuity errors : sum local = 1.3116e-07, global = 3.78449e-08, cumulative = 7.30192e-07
GAMG:  Solving for p, Initial residual = 0.0220614, Final residual = 0.000213523, No Iterations 5
GAMG:  Solving for p, Initial residual = 0.0109948, Final residual = 9.65572e-05, No Iterations 7
GAMG:  Solving for p, Initial residual = 0.00251403, Final residual = 2.20264e-05, No Iterations 18
time step continuity errors : sum local = 6.47246e-08, global = 1.83444e-08, cumulative = 7.48537e-07
PIMPLE: iteration 3
DILUPBiCG:  Solving for Ux, Initial residual = 0.000135347, Final residual = 1.89371e-06, No Iterations 1
DILUPBiCG:  Solving for Uy, Initial residual = 3.61052e-05, Final residual = 2.94462e-07, No Iterations 1
DILUPBiCG:  Solving for Uz, Initial residual = 0.00195921, Final residual = 2.09238e-07, No Iterations 2
GAMG:  Solving for p, Initial residual = 0.0759892, Final residual = 0.000755198, No Iterations 3
GAMG:  Solving for p, Initial residual = 0.0171633, Final residual = 0.000168155, No Iterations 14
GAMG:  Solving for p, Initial residual = 0.0123703, Final residual = 0.000123455, No Iterations 6
time step continuity errors : sum local = 3.83848e-07, global = 7.95352e-08, cumulative = 8.28072e-07
GAMG:  Solving for p, Initial residual = 0.00590936, Final residual = 4.2806e-05, No Iterations 7
GAMG:  Solving for p, Initial residual = 0.00347381, Final residual = 3.12205e-05, No Iterations 4
GAMG:  Solving for p, Initial residual = 0.00109299, Final residual = 8.73413e-07, No Iterations 38
time step continuity errors : sum local = 2.68349e-09, global = -7.96281e-10, cumulative = 8.27275e-07
DILUPBiCG:  Solving for omega, Initial residual = 0.00111299, Final residual = 1.527e-06, No Iterations 1
DILUPBiCG:  Solving for k, Initial residual = 0.00560543, Final residual = 9.02034e-07, No Iterations 2
ExecutionTime = 64.56 s  ClockTime = 64 s

Courant Number mean: 0.279821 max: 0.619899
Time = 0.45

GAMG:  Solving for cellDisplacementx, Initial residual = 0, Final residual = 0, No Iterations 0
GAMG:  Solving for cellDisplacementy, Initial residual = 0, Final residual = 0, No Iterations 0
GAMG:  Solving for cellDisplacementz, Initial residual = 0, Final residual = 0, No Iterations 0
PIMPLE: iteration 1
DILUPBiCG:  Solving for Ux, Initial residual = 0.00422228, Final residual = 3.24706e-05, No Iterations 1
DILUPBiCG:  Solving for Uy, Initial residual = 0.000722043, Final residual = 8.69508e-06, No Iterations 1
DILUPBiCG:  Solving for Uz, Initial residual = 0.0107624, Final residual = 2.63567e-05, No Iterations 1
GAMG:  Solving for p, Initial residual = 0.0875496, Final residual = 0.000862659, No Iterations 5
GAMG:  Solving for p, Initial residual = 0.0380161, Final residual = 0.000357863, No Iterations 8
GAMG:  Solving for p, Initial residual = 0.0104347, Final residual = 9.95068e-05, No Iterations 16
time step continuity errors : sum local = 2.36289e-07, global = 7.24266e-08, cumulative = 8.99702e-07
GAMG:  Solving for p, Initial residual = 0.0459647, Final residual = 0.000367293, No Iterations 5
GAMG:  Solving for p, Initial residual = 0.0180034, Final residual = 0.00015747, No Iterations 6
GAMG:  Solving for p, Initial residual = 0.00481575, Final residual = 4.21928e-05, No Iterations 16
time step continuity errors : sum local = 1.00705e-07, global = 3.06299e-08, cumulative = 9.30332e-07
PIMPLE: iteration 2
DILUPBiCG:  Solving for Ux, Initial residual = 0.000755104, Final residual = 1.00739e-05, No Iterations 1
DILUPBiCG:  Solving for Uy, Initial residual = 0.00014222, Final residual = 5.68526e-06, No Iterations 1
DILUPBiCG:  Solving for Uz, Initial residual = 0.00367121, Final residual = 1.19894e-06, No Iterations 2
GAMG:  Solving for p, Initial residual = 0.0435011, Final residual = 0.000432055, No Iterations 9
GAMG:  Solving for p, Initial residual = 0.02625, Final residual = 0.000218248, No Iterations 10
GAMG:  Solving for p, Initial residual = 0.00709171, Final residual = 6.33958e-05, No Iterations 16
time step continuity errors : sum local = 1.39415e-07, global = 4.12744e-08, cumulative = 9.71606e-07
GAMG:  Solving for p, Initial residual = 0.0234619, Final residual = 0.000223446, No Iterations 7
GAMG:  Solving for p, Initial residual = 0.0120068, Final residual = 0.000103107, No Iterations 10
GAMG:  Solving for p, Initial residual = 0.00341175, Final residual = 3.41043e-05, No Iterations 14
time step continuity errors : sum local = 7.53665e-08, global = 2.28506e-08, cumulative = 9.94457e-07
PIMPLE: iteration 3
DILUPBiCG:  Solving for Ux, Initial residual = 0.000106192, Final residual = 1.31457e-06, No Iterations 1
DILUPBiCG:  Solving for Uy, Initial residual = 3.45092e-05, Final residual = 1.73657e-07, No Iterations 1
DILUPBiCG:  Solving for Uz, Initial residual = 0.00166104, Final residual = 8.49438e-06, No Iterations 1
GAMG:  Solving for p, Initial residual = 0.0924119, Final residual = 0.000596534, No Iterations 4
GAMG:  Solving for p, Initial residual = 0.0212293, Final residual = 0.000194737, No Iterations 11
GAMG:  Solving for p, Initial residual = 0.0129835, Final residual = 0.000109911, No Iterations 8
time step continuity errors : sum local = 2.48735e-07, global = 5.9205e-08, cumulative = 1.05366e-06
GAMG:  Solving for p, Initial residual = 0.00746068, Final residual = 4.96724e-05, No Iterations 5
GAMG:  Solving for p, Initial residual = 0.00415716, Final residual = 3.39648e-05, No Iterations 4
GAMG:  Solving for p, Initial residual = 0.00144304, Final residual = 9.7055e-07, No Iterations 26
time step continuity errors : sum local = 2.16694e-09, global = -6.42523e-10, cumulative = 1.05302e-06
DILUPBiCG:  Solving for omega, Initial residual = 0.00108088, Final residual = 1.50061e-06, No Iterations 1
DILUPBiCG:  Solving for k, Initial residual = 0.00541583, Final residual = 9.07628e-07, No Iterations 2
ExecutionTime = 69.68 s  ClockTime = 70 s

End

