/*---------------------------------------------------------------------------*\
| =========                 |                                                 |
| \\      /  F ield         | OpenFOAM: The Open Source CFD Toolbox           |
|  \\    /   O peration     | Version:  2.3.1                                 |
|   \\  /    A nd           | Web:      www.OpenFOAM.org                      |
|    \\/     M anipulation  |                                                 |
\*---------------------------------------------------------------------------*/
Build  : 2.3.1-262087cdf8db
Exec   : pimpleDyMFoam
Date   : Jun 04 2023
Time   : 16:55:13
Host   : "jcosson-VirtualBox"
PID    : 4194
Case   : /home/jcosson/workspace/henersj_shootingdata/calcs/moderate_deformed/primal/10_intervals_04-06-23/sweep4/interval9
nProcs : 1
sigFpe : Enabling floating point exception trapping (FOAM_SIGFPE).
fileModificationChecking : Monitoring run-time modified files using timeStampMaster
allowSystemOperations : Allowing user-supplied system call operations

// * * * * * * * * * * * * * * * * * * * * * * * * * * * * * * * * * * * * * //
Create time

Create mesh for time = 0.48

Selecting dynamicFvMesh dynamicMotionSolverFvMesh
Selecting motion solver: displacementLaplacian
Selecting motion diffusion: quadratic
Selecting motion diffusion: quadratic
Selecting motion diffusion: inverseDistance

PIMPLE: no residual control data found. Calculations will employ 3 corrector loops

Reading field p

Reading field U

Reading/calculating face flux field phi

Selecting incompressible transport model Newtonian
Selecting turbulence model type RASModel
Selecting RAS turbulence model kOmegaSST
bounding k, min: 0 max: 0.00074636 average: 0.000163343
kOmegaSSTCoeffs
{
    alphaK1         0.85034;
    alphaK2         1;
    alphaOmega1     0.5;
    alphaOmega2     0.85616;
    gamma1          0.5532;
    gamma2          0.4403;
    beta1           0.075;
    beta2           0.0828;
    betaStar        0.09;
    a1              0.31;
    c1              10;
    Cmu             0.09;
    b1              1;
    F3              false;
}

Reading/calculating face velocity Uf

No finite volume options present

Courant Number mean: 0.16122 max: 0.361508

Starting time loop

Courant Number mean: 0.16122 max: 0.361508
Time = 0.481

GAMG:  Solving for cellDisplacementx, Initial residual = 0, Final residual = 0, No Iterations 0
GAMG:  Solving for cellDisplacementy, Initial residual = 0, Final residual = 0, No Iterations 0
GAMG:  Solving for cellDisplacementz, Initial residual = 0, Final residual = 0, No Iterations 0
PIMPLE: iteration 1
DILUPBiCG:  Solving for Ux, Initial residual = 0.0639859, Final residual = 0.000247888, No Iterations 1
DILUPBiCG:  Solving for Uy, Initial residual = 0.011432, Final residual = 2.42719e-05, No Iterations 1
DILUPBiCG:  Solving for Uz, Initial residual = 0.0131096, Final residual = 1.88166e-05, No Iterations 1
GAMG:  Solving for p, Initial residual = 0.121342, Final residual = 0.00114338, No Iterations 4
GAMG:  Solving for p, Initial residual = 0.0151214, Final residual = 0.000130095, No Iterations 20
GAMG:  Solving for p, Initial residual = 0.00700504, Final residual = 6.8164e-05, No Iterations 4
time step continuity errors : sum local = 1.02741e-06, global = 3.69289e-07, cumulative = 3.69289e-07
GAMG:  Solving for p, Initial residual = 0.0528449, Final residual = 0.000459601, No Iterations 4
GAMG:  Solving for p, Initial residual = 0.00755695, Final residual = 7.42839e-05, No Iterations 16
GAMG:  Solving for p, Initial residual = 0.00353436, Final residual = 2.94493e-05, No Iterations 12
time step continuity errors : sum local = 4.44808e-07, global = 1.3272e-07, cumulative = 5.02009e-07
PIMPLE: iteration 2
DILUPBiCG:  Solving for Ux, Initial residual = 0.0175486, Final residual = 0.000102798, No Iterations 1
DILUPBiCG:  Solving for Uy, Initial residual = 0.00328754, Final residual = 6.91641e-06, No Iterations 1
DILUPBiCG:  Solving for Uz, Initial residual = 0.00284692, Final residual = 1.03201e-05, No Iterations 1
GAMG:  Solving for p, Initial residual = 0.0523821, Final residual = 0.000472606, No Iterations 4
GAMG:  Solving for p, Initial residual = 0.00928673, Final residual = 8.39176e-05, No Iterations 16
GAMG:  Solving for p, Initial residual = 0.00421183, Final residual = 4.21092e-05, No Iterations 6
time step continuity errors : sum local = 5.48237e-07, global = -1.56591e-07, cumulative = 3.45418e-07
GAMG:  Solving for p, Initial residual = 0.02719, Final residual = 0.00021558, No Iterations 4
GAMG:  Solving for p, Initial residual = 0.00472461, Final residual = 4.05284e-05, No Iterations 14
GAMG:  Solving for p, Initial residual = 0.00198847, Final residual = 1.9487e-05, No Iterations 8
time step continuity errors : sum local = 2.54781e-07, global = -5.72333e-08, cumulative = 2.88185e-07
PIMPLE: iteration 3
DILUPBiCG:  Solving for Ux, Initial residual = 0.00403161, Final residual = 2.84823e-06, No Iterations 2
DILUPBiCG:  Solving for Uy, Initial residual = 0.00077782, Final residual = 5.41462e-06, No Iterations 1
DILUPBiCG:  Solving for Uz, Initial residual = 0.00641077, Final residual = 2.85102e-06, No Iterations 2
GAMG:  Solving for p, Initial residual = 0.0414768, Final residual = 0.000353134, No Iterations 5
GAMG:  Solving for p, Initial residual = 0.00952949, Final residual = 9.19298e-05, No Iterations 12
GAMG:  Solving for p, Initial residual = 0.00457118, Final residual = 4.56759e-05, No Iterations 10
time step continuity errors : sum local = 6.68473e-07, global = -1.74172e-07, cumulative = 1.14013e-07
GAMG:  Solving for p, Initial residual = 0.00241355, Final residual = 1.99708e-05, No Iterations 12
GAMG:  Solving for p, Initial residual = 0.00129571, Final residual = 1.18127e-05, No Iterations 4
GAMG:  Solving for p, Initial residual = 0.000523055, Final residual = 9.65586e-07, No Iterations 30
time step continuity errors : sum local = 1.40146e-08, global = 4.18787e-09, cumulative = 1.182e-07
DILUPBiCG:  Solving for omega, Initial residual = 0.000919606, Final residual = 7.75077e-07, No Iterations 1
DILUPBiCG:  Solving for k, Initial residual = 0.0040598, Final residual = 7.51153e-07, No Iterations 2
bounding k, min: 0 max: 0.000735218 average: 0.000162211
ExecutionTime = 8.44 s  ClockTime = 8 s

Courant Number mean: 0.155872 max: 0.34973
Time = 0.482

GAMG:  Solving for cellDisplacementx, Initial residual = 0, Final residual = 0, No Iterations 0
GAMG:  Solving for cellDisplacementy, Initial residual = 0, Final residual = 0, No Iterations 0
GAMG:  Solving for cellDisplacementz, Initial residual = 0, Final residual = 0, No Iterations 0
PIMPLE: iteration 1
DILUPBiCG:  Solving for Ux, Initial residual = 0.0643035, Final residual = 0.000247127, No Iterations 1
DILUPBiCG:  Solving for Uy, Initial residual = 0.0115953, Final residual = 2.43569e-05, No Iterations 1
DILUPBiCG:  Solving for Uz, Initial residual = 0.0118824, Final residual = 1.69289e-05, No Iterations 1
GAMG:  Solving for p, Initial residual = 0.112433, Final residual = 0.00112138, No Iterations 4
GAMG:  Solving for p, Initial residual = 0.0132248, Final residual = 0.000129596, No Iterations 20
GAMG:  Solving for p, Initial residual = 0.00642276, Final residual = 5.81525e-05, No Iterations 4
time step continuity errors : sum local = 8.61802e-07, global = 3.19883e-07, cumulative = 4.38084e-07
GAMG:  Solving for p, Initial residual = 0.0491722, Final residual = 0.000449454, No Iterations 4
GAMG:  Solving for p, Initial residual = 0.00665211, Final residual = 6.41219e-05, No Iterations 18
GAMG:  Solving for p, Initial residual = 0.00323746, Final residual = 2.71031e-05, No Iterations 10
time step continuity errors : sum local = 4.02884e-07, global = 1.04095e-07, cumulative = 5.42178e-07
PIMPLE: iteration 2
DILUPBiCG:  Solving for Ux, Initial residual = 0.0175207, Final residual = 0.000102005, No Iterations 1
DILUPBiCG:  Solving for Uy, Initial residual = 0.00331925, Final residual = 6.91886e-06, No Iterations 1
DILUPBiCG:  Solving for Uz, Initial residual = 0.00282065, Final residual = 1.02659e-05, No Iterations 1
GAMG:  Solving for p, Initial residual = 0.0480689, Final residual = 0.000300872, No Iterations 6
GAMG:  Solving for p, Initial residual = 0.00818008, Final residual = 7.79747e-05, No Iterations 16
GAMG:  Solving for p, Initial residual = 0.00342153, Final residual = 3.21945e-05, No Iterations 10
time step continuity errors : sum local = 4.12945e-07, global = -1.11109e-07, cumulative = 4.3107e-07
GAMG:  Solving for p, Initial residual = 0.0248732, Final residual = 0.000218566, No Iterations 4
GAMG:  Solving for p, Initial residual = 0.0040624, Final residual = 3.63298e-05, No Iterations 16
GAMG:  Solving for p, Initial residual = 0.00172473, Final residual = 1.51898e-05, No Iterations 10
time step continuity errors : sum local = 1.95781e-07, global = -5.0525e-08, cumulative = 3.80545e-07
PIMPLE: iteration 3
DILUPBiCG:  Solving for Ux, Initial residual = 0.00399324, Final residual = 2.82713e-06, No Iterations 2
DILUPBiCG:  Solving for Uy, Initial residual = 0.000789289, Final residual = 5.2837e-06, No Iterations 1
DILUPBiCG:  Solving for Uz, Initial residual = 0.00618126, Final residual = 2.5495e-06, No Iterations 2
GAMG:  Solving for p, Initial residual = 0.0414206, Final residual = 0.000355296, No Iterations 5
GAMG:  Solving for p, Initial residual = 0.0095414, Final residual = 9.50102e-05, No Iterations 10
GAMG:  Solving for p, Initial residual = 0.0045828, Final residual = 4.56048e-05, No Iterations 10
time step continuity errors : sum local = 6.5725e-07, global = -1.70533e-07, cumulative = 2.10012e-07
GAMG:  Solving for p, Initial residual = 0.00239371, Final residual = 2.33143e-05, No Iterations 6
GAMG:  Solving for p, Initial residual = 0.00127834, Final residual = 1.24793e-05, No Iterations 10
GAMG:  Solving for p, Initial residual = 0.000547898, Final residual = 8.68867e-07, No Iterations 32
time step continuity errors : sum local = 1.24168e-08, global = 3.68535e-09, cumulative = 2.13697e-07
DILUPBiCG:  Solving for omega, Initial residual = 0.000959945, Final residual = 7.79319e-07, No Iterations 1
DILUPBiCG:  Solving for k, Initial residual = 0.00401105, Final residual = 7.29194e-07, No Iterations 2
bounding k, min: 0 max: 0.000723314 average: 0.000161095
ExecutionTime = 15.9 s  ClockTime = 16 s

Courant Number mean: 0.150662 max: 0.338223
Time = 0.483

GAMG:  Solving for cellDisplacementx, Initial residual = 0, Final residual = 0, No Iterations 0
GAMG:  Solving for cellDisplacementy, Initial residual = 0, Final residual = 0, No Iterations 0
GAMG:  Solving for cellDisplacementz, Initial residual = 0, Final residual = 0, No Iterations 0
PIMPLE: iteration 1
DILUPBiCG:  Solving for Ux, Initial residual = 0.0643453, Final residual = 0.000245577, No Iterations 1
DILUPBiCG:  Solving for Uy, Initial residual = 0.0117831, Final residual = 2.45583e-05, No Iterations 1
DILUPBiCG:  Solving for Uz, Initial residual = 0.0123922, Final residual = 1.53697e-05, No Iterations 1
GAMG:  Solving for p, Initial residual = 0.112771, Final residual = 0.00106497, No Iterations 4
GAMG:  Solving for p, Initial residual = 0.0134495, Final residual = 0.000125488, No Iterations 20
GAMG:  Solving for p, Initial residual = 0.00647356, Final residual = 5.47873e-05, No Iterations 4
time step continuity errors : sum local = 7.97368e-07, global = 2.80832e-07, cumulative = 4.94529e-07
GAMG:  Solving for p, Initial residual = 0.0493336, Final residual = 0.000427855, No Iterations 4
GAMG:  Solving for p, Initial residual = 0.00673303, Final residual = 6.16579e-05, No Iterations 18
GAMG:  Solving for p, Initial residual = 0.00325351, Final residual = 2.98389e-05, No Iterations 4
time step continuity errors : sum local = 4.35709e-07, global = 1.54547e-07, cumulative = 6.49076e-07
PIMPLE: iteration 2
DILUPBiCG:  Solving for Ux, Initial residual = 0.0173804, Final residual = 0.000100682, No Iterations 1
DILUPBiCG:  Solving for Uy, Initial residual = 0.00332476, Final residual = 6.87069e-06, No Iterations 1
DILUPBiCG:  Solving for Uz, Initial residual = 0.00273102, Final residual = 9.97129e-06, No Iterations 1
GAMG:  Solving for p, Initial residual = 0.0482112, Final residual = 0.000468628, No Iterations 4
GAMG:  Solving for p, Initial residual = 0.00838842, Final residual = 7.22725e-05, No Iterations 18
GAMG:  Solving for p, Initial residual = 0.00398905, Final residual = 3.5472e-05, No Iterations 6
time step continuity errors : sum local = 4.46858e-07, global = -1.26301e-07, cumulative = 5.22775e-07
GAMG:  Solving for p, Initial residual = 0.0251313, Final residual = 0.000213462, No Iterations 4
GAMG:  Solving for p, Initial residual = 0.00434405, Final residual = 4.11688e-05, No Iterations 14
GAMG:  Solving for p, Initial residual = 0.00184627, Final residual = 1.52075e-05, No Iterations 10
time step continuity errors : sum local = 1.9245e-07, global = -4.88138e-08, cumulative = 4.73962e-07
PIMPLE: iteration 3
DILUPBiCG:  Solving for Ux, Initial residual = 0.00393918, Final residual = 2.78205e-06, No Iterations 2
DILUPBiCG:  Solving for Uy, Initial residual = 0.000782741, Final residual = 5.11954e-06, No Iterations 1
DILUPBiCG:  Solving for Uz, Initial residual = 0.00610218, Final residual = 2.38792e-06, No Iterations 2
GAMG:  Solving for p, Initial residual = 0.0414239, Final residual = 0.000337439, No Iterations 5
GAMG:  Solving for p, Initial residual = 0.00944583, Final residual = 8.52655e-05, No Iterations 14
GAMG:  Solving for p, Initial residual = 0.0046825, Final residual = 4.2491e-05, No Iterations 10
time step continuity errors : sum local = 6.01979e-07, global = -1.56688e-07, cumulative = 3.17274e-07
GAMG:  Solving for p, Initial residual = 0.00239029, Final residual = 2.14341e-05, No Iterations 12
GAMG:  Solving for p, Initial residual = 0.00127226, Final residual = 1.23497e-05, No Iterations 4
GAMG:  Solving for p, Initial residual = 0.00051198, Final residual = 8.58514e-07, No Iterations 32
time step continuity errors : sum local = 1.20528e-08, global = 3.56318e-09, cumulative = 3.20837e-07
DILUPBiCG:  Solving for omega, Initial residual = 0.000999521, Final residual = 7.81328e-07, No Iterations 1
DILUPBiCG:  Solving for k, Initial residual = 0.00395632, Final residual = 7.12437e-07, No Iterations 2
bounding k, min: 0 max: 0.000713156 average: 0.000159998
ExecutionTime = 23.04 s  ClockTime = 23 s

Courant Number mean: 0.145598 max: 0.32755
Time = 0.484

GAMG:  Solving for cellDisplacementx, Initial residual = 0, Final residual = 0, No Iterations 0
GAMG:  Solving for cellDisplacementy, Initial residual = 0, Final residual = 0, No Iterations 0
GAMG:  Solving for cellDisplacementz, Initial residual = 0, Final residual = 0, No Iterations 0
PIMPLE: iteration 1
DILUPBiCG:  Solving for Ux, Initial residual = 0.064094, Final residual = 0.000242688, No Iterations 1
DILUPBiCG:  Solving for Uy, Initial residual = 0.0118547, Final residual = 2.44964e-05, No Iterations 1
DILUPBiCG:  Solving for Uz, Initial residual = 0.0125498, Final residual = 1.51614e-05, No Iterations 1
GAMG:  Solving for p, Initial residual = 0.111468, Final residual = 0.00104183, No Iterations 4
GAMG:  Solving for p, Initial residual = 0.0134989, Final residual = 0.000126059, No Iterations 20
GAMG:  Solving for p, Initial residual = 0.00660075, Final residual = 5.52211e-05, No Iterations 4
time step continuity errors : sum local = 7.82839e-07, global = 2.63168e-07, cumulative = 5.84005e-07
GAMG:  Solving for p, Initial residual = 0.0490962, Final residual = 0.000416893, No Iterations 4
GAMG:  Solving for p, Initial residual = 0.00673176, Final residual = 6.26638e-05, No Iterations 18
GAMG:  Solving for p, Initial residual = 0.00330991, Final residual = 2.85128e-05, No Iterations 4
time step continuity errors : sum local = 4.05644e-07, global = 1.40755e-07, cumulative = 7.2476e-07
PIMPLE: iteration 2
DILUPBiCG:  Solving for Ux, Initial residual = 0.0171863, Final residual = 9.89865e-05, No Iterations 1
DILUPBiCG:  Solving for Uy, Initial residual = 0.0033286, Final residual = 6.82225e-06, No Iterations 1
DILUPBiCG:  Solving for Uz, Initial residual = 0.00276121, Final residual = 1.01882e-05, No Iterations 1
GAMG:  Solving for p, Initial residual = 0.0478435, Final residual = 0.000300158, No Iterations 6
GAMG:  Solving for p, Initial residual = 0.00838, Final residual = 7.76472e-05, No Iterations 16
GAMG:  Solving for p, Initial residual = 0.00346949, Final residual = 3.1383e-05, No Iterations 10
time step continuity errors : sum local = 3.86329e-07, global = -1.01409e-07, cumulative = 6.23351e-07
GAMG:  Solving for p, Initial residual = 0.0247977, Final residual = 0.000218479, No Iterations 4
GAMG:  Solving for p, Initial residual = 0.00416628, Final residual = 3.67943e-05, No Iterations 16
GAMG:  Solving for p, Initial residual = 0.00176031, Final residual = 1.75602e-05, No Iterations 8
time step continuity errors : sum local = 2.17138e-07, global = -4.81354e-08, cumulative = 5.75216e-07
PIMPLE: iteration 3
DILUPBiCG:  Solving for Ux, Initial residual = 0.00385923, Final residual = 2.7511e-06, No Iterations 2
DILUPBiCG:  Solving for Uy, Initial residual = 0.000790104, Final residual = 5.00786e-06, No Iterations 1
DILUPBiCG:  Solving for Uz, Initial residual = 0.00583985, Final residual = 2.19382e-06, No Iterations 2
GAMG:  Solving for p, Initial residual = 0.0421643, Final residual = 0.000337805, No Iterations 5
GAMG:  Solving for p, Initial residual = 0.00963155, Final residual = 9.58781e-05, No Iterations 12
GAMG:  Solving for p, Initial residual = 0.00475285, Final residual = 3.91338e-05, No Iterations 12
time step continuity errors : sum local = 5.41117e-07, global = -1.58804e-07, cumulative = 4.16412e-07
GAMG:  Solving for p, Initial residual = 0.0024253, Final residual = 2.04797e-05, No Iterations 12
GAMG:  Solving for p, Initial residual = 0.00130581, Final residual = 1.20038e-05, No Iterations 4
GAMG:  Solving for p, Initial residual = 0.000540004, Final residual = 9.68992e-07, No Iterations 30
time step continuity errors : sum local = 1.32655e-08, global = 3.97437e-09, cumulative = 4.20387e-07
DILUPBiCG:  Solving for omega, Initial residual = 0.00103862, Final residual = 7.80751e-07, No Iterations 1
DILUPBiCG:  Solving for k, Initial residual = 0.00390043, Final residual = 6.94912e-07, No Iterations 2
bounding k, min: 0 max: 0.000702503 average: 0.000158922
ExecutionTime = 29.9 s  ClockTime = 30 s

Courant Number mean: 0.140715 max: 0.317277
Time = 0.485

GAMG:  Solving for cellDisplacementx, Initial residual = 0, Final residual = 0, No Iterations 0
GAMG:  Solving for cellDisplacementy, Initial residual = 0, Final residual = 0, No Iterations 0
GAMG:  Solving for cellDisplacementz, Initial residual = 0, Final residual = 0, No Iterations 0
PIMPLE: iteration 1
DILUPBiCG:  Solving for Ux, Initial residual = 0.0634288, Final residual = 0.00023898, No Iterations 1
DILUPBiCG:  Solving for Uy, Initial residual = 0.0119386, Final residual = 2.44976e-05, No Iterations 1
DILUPBiCG:  Solving for Uz, Initial residual = 0.0129205, Final residual = 1.3943e-05, No Iterations 1
GAMG:  Solving for p, Initial residual = 0.111852, Final residual = 0.000975432, No Iterations 4
GAMG:  Solving for p, Initial residual = 0.013673, Final residual = 0.000121446, No Iterations 20
GAMG:  Solving for p, Initial residual = 0.006634, Final residual = 5.48921e-05, No Iterations 4
time step continuity errors : sum local = 7.57406e-07, global = 2.70131e-07, cumulative = 6.90518e-07
GAMG:  Solving for p, Initial residual = 0.0492778, Final residual = 0.000393302, No Iterations 4
GAMG:  Solving for p, Initial residual = 0.00681063, Final residual = 5.99844e-05, No Iterations 18
GAMG:  Solving for p, Initial residual = 0.00333534, Final residual = 2.78119e-05, No Iterations 4
time step continuity errors : sum local = 3.85239e-07, global = 1.32017e-07, cumulative = 8.22535e-07
PIMPLE: iteration 2
DILUPBiCG:  Solving for Ux, Initial residual = 0.0169125, Final residual = 9.68225e-05, No Iterations 1
DILUPBiCG:  Solving for Uy, Initial residual = 0.0033105, Final residual = 6.73522e-06, No Iterations 1
DILUPBiCG:  Solving for Uz, Initial residual = 0.00263622, Final residual = 9.79364e-06, No Iterations 1
GAMG:  Solving for p, Initial residual = 0.0479999, Final residual = 0.000475843, No Iterations 4
GAMG:  Solving for p, Initial residual = 0.00871423, Final residual = 8.50401e-05, No Iterations 16
GAMG:  Solving for p, Initial residual = 0.00420149, Final residual = 4.05706e-05, No Iterations 4
time step continuity errors : sum local = 4.86028e-07, global = -1.8471e-07, cumulative = 6.37825e-07
GAMG:  Solving for p, Initial residual = 0.0251604, Final residual = 0.000222118, No Iterations 4
GAMG:  Solving for p, Initial residual = 0.00466199, Final residual = 4.23543e-05, No Iterations 14
GAMG:  Solving for p, Initial residual = 0.00196304, Final residual = 1.73e-05, No Iterations 4
time step continuity errors : sum local = 2.07906e-07, global = -7.88964e-08, cumulative = 5.58928e-07
PIMPLE: iteration 3
DILUPBiCG:  Solving for Ux, Initial residual = 0.00376633, Final residual = 2.68169e-06, No Iterations 2
DILUPBiCG:  Solving for Uy, Initial residual = 0.000773138, Final residual = 4.87463e-06, No Iterations 1
DILUPBiCG:  Solving for Uz, Initial residual = 0.00574707, Final residual = 2.0015e-06, No Iterations 2
GAMG:  Solving for p, Initial residual = 0.042087, Final residual = 0.000336686, No Iterations 5
GAMG:  Solving for p, Initial residual = 0.00966137, Final residual = 8.98858e-05, No Iterations 14
GAMG:  Solving for p, Initial residual = 0.00485342, Final residual = 4.62267e-05, No Iterations 10
time step continuity errors : sum local = 6.22249e-07, global = -1.63102e-07, cumulative = 3.95826e-07
GAMG:  Solving for p, Initial residual = 0.0024218, Final residual = 2.12643e-05, No Iterations 6
GAMG:  Solving for p, Initial residual = 0.00125337, Final residual = 1.17356e-05, No Iterations 4
GAMG:  Solving for p, Initial residual = 0.000512866, Final residual = 9.12212e-07, No Iterations 34
time step continuity errors : sum local = 1.21524e-08, global = 3.56065e-09, cumulative = 3.99387e-07
DILUPBiCG:  Solving for omega, Initial residual = 0.00107554, Final residual = 7.78025e-07, No Iterations 1
DILUPBiCG:  Solving for k, Initial residual = 0.00384143, Final residual = 6.76793e-07, No Iterations 2
bounding k, min: 0 max: 0.000690945 average: 0.00015787
ExecutionTime = 36.32 s  ClockTime = 36 s

Courant Number mean: 0.136016 max: 0.307394
Time = 0.486

GAMG:  Solving for cellDisplacementx, Initial residual = 0, Final residual = 0, No Iterations 0
GAMG:  Solving for cellDisplacementy, Initial residual = 0, Final residual = 0, No Iterations 0
GAMG:  Solving for cellDisplacementz, Initial residual = 0, Final residual = 0, No Iterations 0
PIMPLE: iteration 1
DILUPBiCG:  Solving for Ux, Initial residual = 0.0624994, Final residual = 0.000233767, No Iterations 1
DILUPBiCG:  Solving for Uy, Initial residual = 0.0118757, Final residual = 2.41804e-05, No Iterations 1
DILUPBiCG:  Solving for Uz, Initial residual = 0.0130325, Final residual = 1.36542e-05, No Iterations 1
GAMG:  Solving for p, Initial residual = 0.110402, Final residual = 0.000957665, No Iterations 4
GAMG:  Solving for p, Initial residual = 0.013765, Final residual = 0.000122737, No Iterations 20
GAMG:  Solving for p, Initial residual = 0.00677745, Final residual = 6.44969e-05, No Iterations 4
time step continuity errors : sum local = 8.57958e-07, global = 3.21669e-07, cumulative = 7.21056e-07
GAMG:  Solving for p, Initial residual = 0.0490094, Final residual = 0.000384992, No Iterations 4
GAMG:  Solving for p, Initial residual = 0.00681769, Final residual = 6.14519e-05, No Iterations 18
GAMG:  Solving for p, Initial residual = 0.00339478, Final residual = 2.95477e-05, No Iterations 4
time step continuity errors : sum local = 3.9465e-07, global = 1.39063e-07, cumulative = 8.60119e-07
PIMPLE: iteration 2
DILUPBiCG:  Solving for Ux, Initial residual = 0.0165335, Final residual = 9.42402e-05, No Iterations 1
DILUPBiCG:  Solving for Uy, Initial residual = 0.00327863, Final residual = 6.62273e-06, No Iterations 1
DILUPBiCG:  Solving for Uz, Initial residual = 0.00267533, Final residual = 9.80517e-06, No Iterations 1
GAMG:  Solving for p, Initial residual = 0.0475732, Final residual = 0.000303218, No Iterations 6
GAMG:  Solving for p, Initial residual = 0.00870498, Final residual = 7.7975e-05, No Iterations 16
GAMG:  Solving for p, Initial residual = 0.00356093, Final residual = 3.03194e-05, No Iterations 10
time step continuity errors : sum local = 3.51118e-07, global = -9.09988e-08, cumulative = 7.69121e-07
GAMG:  Solving for p, Initial residual = 0.0247462, Final residual = 0.000223059, No Iterations 4
GAMG:  Solving for p, Initial residual = 0.00435371, Final residual = 3.75533e-05, No Iterations 16
GAMG:  Solving for p, Initial residual = 0.0018268, Final residual = 1.76413e-05, No Iterations 4
time step continuity errors : sum local = 2.05152e-07, global = -7.86572e-08, cumulative = 6.90463e-07
PIMPLE: iteration 3
DILUPBiCG:  Solving for Ux, Initial residual = 0.00364235, Final residual = 2.63739e-06, No Iterations 2
DILUPBiCG:  Solving for Uy, Initial residual = 0.000772937, Final residual = 4.7992e-06, No Iterations 1
DILUPBiCG:  Solving for Uz, Initial residual = 0.00546992, Final residual = 1.91421e-06, No Iterations 2
GAMG:  Solving for p, Initial residual = 0.0430061, Final residual = 0.0003299, No Iterations 5
GAMG:  Solving for p, Initial residual = 0.00982295, Final residual = 8.70581e-05, No Iterations 14
GAMG:  Solving for p, Initial residual = 0.00494246, Final residual = 4.25753e-05, No Iterations 10
time step continuity errors : sum local = 5.53275e-07, global = -1.44526e-07, cumulative = 5.45937e-07
GAMG:  Solving for p, Initial residual = 0.00245704, Final residual = 2.36182e-05, No Iterations 6
GAMG:  Solving for p, Initial residual = 0.00130288, Final residual = 1.25968e-05, No Iterations 10
GAMG:  Solving for p, Initial residual = 0.000560359, Final residual = 8.71193e-07, No Iterations 32
time step continuity errors : sum local = 1.1205e-08, global = 3.33553e-09, cumulative = 5.49273e-07
DILUPBiCG:  Solving for omega, Initial residual = 0.00111194, Final residual = 7.73241e-07, No Iterations 1
DILUPBiCG:  Solving for k, Initial residual = 0.00378455, Final residual = 6.55747e-07, No Iterations 2
bounding k, min: 0 max: 0.000678578 average: 0.000156844
ExecutionTime = 42.87 s  ClockTime = 43 s

Courant Number mean: 0.131536 max: 0.297936
Time = 0.487

GAMG:  Solving for cellDisplacementx, Initial residual = 0, Final residual = 0, No Iterations 0
GAMG:  Solving for cellDisplacementy, Initial residual = 0, Final residual = 0, No Iterations 0
GAMG:  Solving for cellDisplacementz, Initial residual = 0, Final residual = 0, No Iterations 0
PIMPLE: iteration 1
DILUPBiCG:  Solving for Ux, Initial residual = 0.0610492, Final residual = 0.000227686, No Iterations 1
DILUPBiCG:  Solving for Uy, Initial residual = 0.0118186, Final residual = 2.39136e-05, No Iterations 1
DILUPBiCG:  Solving for Uz, Initial residual = 0.0131441, Final residual = 1.28974e-05, No Iterations 1
GAMG:  Solving for p, Initial residual = 0.110637, Final residual = 0.000878845, No Iterations 4
GAMG:  Solving for p, Initial residual = 0.0138418, Final residual = 0.000137324, No Iterations 18
GAMG:  Solving for p, Initial residual = 0.00676211, Final residual = 5.90003e-05, No Iterations 4
time step continuity errors : sum local = 7.55051e-07, global = 2.63929e-07, cumulative = 8.13202e-07
GAMG:  Solving for p, Initial residual = 0.0491887, Final residual = 0.000362024, No Iterations 4
GAMG:  Solving for p, Initial residual = 0.00687787, Final residual = 6.81558e-05, No Iterations 16
GAMG:  Solving for p, Initial residual = 0.00339172, Final residual = 3.0652e-05, No Iterations 4
time step continuity errors : sum local = 3.94208e-07, global = 1.28603e-07, cumulative = 9.41805e-07
PIMPLE: iteration 2
DILUPBiCG:  Solving for Ux, Initial residual = 0.016058, Final residual = 9.11058e-05, No Iterations 1
DILUPBiCG:  Solving for Uy, Initial residual = 0.00321841, Final residual = 6.46147e-06, No Iterations 1
DILUPBiCG:  Solving for Uz, Initial residual = 0.00255474, Final residual = 9.37527e-06, No Iterations 1
GAMG:  Solving for p, Initial residual = 0.0477261, Final residual = 0.000298883, No Iterations 6
GAMG:  Solving for p, Initial residual = 0.00916303, Final residual = 8.91484e-05, No Iterations 14
GAMG:  Solving for p, Initial residual = 0.00408334, Final residual = 3.69959e-05, No Iterations 4
time step continuity errors : sum local = 4.12312e-07, global = -1.56701e-07, cumulative = 7.85104e-07
GAMG:  Solving for p, Initial residual = 0.0251553, Final residual = 0.000226194, No Iterations 4
GAMG:  Solving for p, Initial residual = 0.00497421, Final residual = 4.30585e-05, No Iterations 14
GAMG:  Solving for p, Initial residual = 0.00207727, Final residual = 1.59567e-05, No Iterations 4
time step continuity errors : sum local = 1.78336e-07, global = -6.33141e-08, cumulative = 7.2179e-07
PIMPLE: iteration 3
DILUPBiCG:  Solving for Ux, Initial residual = 0.0035022, Final residual = 2.55366e-06, No Iterations 2
DILUPBiCG:  Solving for Uy, Initial residual = 0.000742129, Final residual = 4.73075e-06, No Iterations 1
DILUPBiCG:  Solving for Uz, Initial residual = 0.00530533, Final residual = 1.69256e-06, No Iterations 2
GAMG:  Solving for p, Initial residual = 0.0430085, Final residual = 0.000337769, No Iterations 5
GAMG:  Solving for p, Initial residual = 0.00991333, Final residual = 9.38757e-05, No Iterations 14
GAMG:  Solving for p, Initial residual = 0.00505248, Final residual = 4.87248e-05, No Iterations 10
time step continuity errors : sum local = 6.09993e-07, global = -1.60477e-07, cumulative = 5.61312e-07
GAMG:  Solving for p, Initial residual = 0.00246576, Final residual = 2.41434e-05, No Iterations 7
GAMG:  Solving for p, Initial residual = 0.00127985, Final residual = 1.07194e-05, No Iterations 6
GAMG:  Solving for p, Initial residual = 0.000509894, Final residual = 9.17707e-07, No Iterations 30
time step continuity errors : sum local = 1.13647e-08, global = 3.42403e-09, cumulative = 5.64736e-07
DILUPBiCG:  Solving for omega, Initial residual = 0.0011459, Final residual = 7.66923e-07, No Iterations 1
DILUPBiCG:  Solving for k, Initial residual = 0.00372668, Final residual = 6.35379e-07, No Iterations 2
bounding k, min: 0 max: 0.000665487 average: 0.000155845
ExecutionTime = 49.07 s  ClockTime = 49 s

Courant Number mean: 0.127278 max: 0.288946
Time = 0.488

GAMG:  Solving for cellDisplacementx, Initial residual = 0, Final residual = 0, No Iterations 0
GAMG:  Solving for cellDisplacementy, Initial residual = 0, Final residual = 0, No Iterations 0
GAMG:  Solving for cellDisplacementz, Initial residual = 0, Final residual = 0, No Iterations 0
PIMPLE: iteration 1
DILUPBiCG:  Solving for Ux, Initial residual = 0.0593643, Final residual = 0.000219974, No Iterations 1
DILUPBiCG:  Solving for Uy, Initial residual = 0.0115968, Final residual = 2.33159e-05, No Iterations 1
DILUPBiCG:  Solving for Uz, Initial residual = 0.0131356, Final residual = 1.25089e-05, No Iterations 1
GAMG:  Solving for p, Initial residual = 0.108945, Final residual = 0.000865232, No Iterations 4
GAMG:  Solving for p, Initial residual = 0.0139387, Final residual = 0.000138718, No Iterations 18
GAMG:  Solving for p, Initial residual = 0.00690512, Final residual = 6.24513e-05, No Iterations 5
time step continuity errors : sum local = 7.61301e-07, global = -2.79973e-07, cumulative = 2.84764e-07
GAMG:  Solving for p, Initial residual = 0.0487946, Final residual = 0.000348914, No Iterations 4
GAMG:  Solving for p, Initial residual = 0.00686269, Final residual = 6.02679e-05, No Iterations 18
GAMG:  Solving for p, Initial residual = 0.00348316, Final residual = 3.4458e-05, No Iterations 4
time step continuity errors : sum local = 4.2249e-07, global = 1.55725e-07, cumulative = 4.40488e-07
PIMPLE: iteration 2
DILUPBiCG:  Solving for Ux, Initial residual = 0.015485, Final residual = 8.76192e-05, No Iterations 1
DILUPBiCG:  Solving for Uy, Initial residual = 0.00314483, Final residual = 6.2758e-06, No Iterations 1
DILUPBiCG:  Solving for Uz, Initial residual = 0.00259583, Final residual = 8.84788e-06, No Iterations 1
GAMG:  Solving for p, Initial residual = 0.0471456, Final residual = 0.000307175, No Iterations 6
GAMG:  Solving for p, Initial residual = 0.00908219, Final residual = 7.82718e-05, No Iterations 16
GAMG:  Solving for p, Initial residual = 0.00367221, Final residual = 3.52798e-05, No Iterations 8
time step continuity errors : sum local = 3.75736e-07, global = -8.18028e-08, cumulative = 3.58686e-07
GAMG:  Solving for p, Initial residual = 0.0246399, Final residual = 0.000228475, No Iterations 4
GAMG:  Solving for p, Initial residual = 0.00456937, Final residual = 4.51414e-05, No Iterations 14
GAMG:  Solving for p, Initial residual = 0.00189066, Final residual = 1.88077e-05, No Iterations 4
time step continuity errors : sum local = 2.01154e-07, global = -7.55171e-08, cumulative = 2.83169e-07
PIMPLE: iteration 3
DILUPBiCG:  Solving for Ux, Initial residual = 0.00333337, Final residual = 2.51237e-06, No Iterations 2
DILUPBiCG:  Solving for Uy, Initial residual = 0.00073125, Final residual = 4.70294e-06, No Iterations 1
DILUPBiCG:  Solving for Uz, Initial residual = 0.00504249, Final residual = 1.71484e-06, No Iterations 2
GAMG:  Solving for p, Initial residual = 0.0441236, Final residual = 0.000328792, No Iterations 5
GAMG:  Solving for p, Initial residual = 0.0100758, Final residual = 9.29184e-05, No Iterations 14
GAMG:  Solving for p, Initial residual = 0.00515142, Final residual = 4.67992e-05, No Iterations 10
time step continuity errors : sum local = 5.58854e-07, global = -1.46586e-07, cumulative = 1.36583e-07
GAMG:  Solving for p, Initial residual = 0.00251454, Final residual = 1.11263e-05, No Iterations 7
GAMG:  Solving for p, Initial residual = 0.00135323, Final residual = 6.62608e-06, No Iterations 4
GAMG:  Solving for p, Initial residual = 0.000551691, Final residual = 9.35069e-07, No Iterations 12
time step continuity errors : sum local = 1.10435e-08, global = 3.8681e-09, cumulative = 1.40451e-07
DILUPBiCG:  Solving for omega, Initial residual = 0.00117814, Final residual = 7.59125e-07, No Iterations 1
DILUPBiCG:  Solving for k, Initial residual = 0.00367154, Final residual = 6.18447e-07, No Iterations 2
bounding k, min: 0 max: 0.000651515 average: 0.000154873
ExecutionTime = 55.14 s  ClockTime = 55 s

Courant Number mean: 0.123272 max: 0.280455
Time = 0.489

GAMG:  Solving for cellDisplacementx, Initial residual = 0, Final residual = 0, No Iterations 0
GAMG:  Solving for cellDisplacementy, Initial residual = 0, Final residual = 0, No Iterations 0
GAMG:  Solving for cellDisplacementz, Initial residual = 0, Final residual = 0, No Iterations 0
PIMPLE: iteration 1
DILUPBiCG:  Solving for Ux, Initial residual = 0.0570798, Final residual = 0.000211428, No Iterations 1
DILUPBiCG:  Solving for Uy, Initial residual = 0.0113607, Final residual = 2.27085e-05, No Iterations 1
DILUPBiCG:  Solving for Uz, Initial residual = 0.0129294, Final residual = 1.229e-05, No Iterations 1
GAMG:  Solving for p, Initial residual = 0.108999, Final residual = 0.000773375, No Iterations 4
GAMG:  Solving for p, Initial residual = 0.013887, Final residual = 0.000131318, No Iterations 18
GAMG:  Solving for p, Initial residual = 0.0068703, Final residual = 6.43828e-05, No Iterations 4
time step continuity errors : sum local = 7.4649e-07, global = 2.43786e-07, cumulative = 3.84237e-07
GAMG:  Solving for p, Initial residual = 0.0489248, Final residual = 0.000321489, No Iterations 4
GAMG:  Solving for p, Initial residual = 0.00687023, Final residual = 6.6045e-05, No Iterations 16
GAMG:  Solving for p, Initial residual = 0.00343815, Final residual = 3.21717e-05, No Iterations 4
time step continuity errors : sum local = 3.75022e-07, global = 1.38006e-07, cumulative = 5.22242e-07
PIMPLE: iteration 2
DILUPBiCG:  Solving for Ux, Initial residual = 0.0148077, Final residual = 8.35563e-05, No Iterations 1
DILUPBiCG:  Solving for Uy, Initial residual = 0.00303871, Final residual = 6.03467e-06, No Iterations 1
DILUPBiCG:  Solving for Uz, Initial residual = 0.00249662, Final residual = 8.67756e-06, No Iterations 1
GAMG:  Solving for p, Initial residual = 0.0472724, Final residual = 0.000302719, No Iterations 6
GAMG:  Solving for p, Initial residual = 0.00964715, Final residual = 9.04413e-05, No Iterations 14
GAMG:  Solving for p, Initial residual = 0.00425441, Final residual = 3.54989e-05, No Iterations 4
time step continuity errors : sum local = 3.5907e-07, global = -1.34511e-07, cumulative = 3.87732e-07
GAMG:  Solving for p, Initial residual = 0.0250754, Final residual = 0.000233217, No Iterations 4
GAMG:  Solving for p, Initial residual = 0.00532495, Final residual = 4.42444e-05, No Iterations 14
GAMG:  Solving for p, Initial residual = 0.00217946, Final residual = 1.61344e-05, No Iterations 4
time step continuity errors : sum local = 1.63588e-07, global = -5.56395e-08, cumulative = 3.32092e-07
PIMPLE: iteration 3
DILUPBiCG:  Solving for Ux, Initial residual = 0.00314586, Final residual = 2.42867e-06, No Iterations 2
DILUPBiCG:  Solving for Uy, Initial residual = 0.000686711, Final residual = 4.71361e-06, No Iterations 1
DILUPBiCG:  Solving for Uz, Initial residual = 0.00478815, Final residual = 1.48766e-06, No Iterations 2
GAMG:  Solving for p, Initial residual = 0.044232, Final residual = 0.000343727, No Iterations 5
GAMG:  Solving for p, Initial residual = 0.0102411, Final residual = 9.75568e-05, No Iterations 14
GAMG:  Solving for p, Initial residual = 0.00529036, Final residual = 5.07038e-05, No Iterations 10
time step continuity errors : sum local = 5.75548e-07, global = -1.52212e-07, cumulative = 1.7988e-07
GAMG:  Solving for p, Initial residual = 0.00252683, Final residual = 2.40838e-05, No Iterations 7
GAMG:  Solving for p, Initial residual = 0.00129743, Final residual = 9.97282e-06, No Iterations 6
GAMG:  Solving for p, Initial residual = 0.000513369, Final residual = 9.48717e-07, No Iterations 28
time step continuity errors : sum local = 1.0643e-08, global = 3.22549e-09, cumulative = 1.83106e-07
DILUPBiCG:  Solving for omega, Initial residual = 0.00120761, Final residual = 7.50331e-07, No Iterations 1
DILUPBiCG:  Solving for k, Initial residual = 0.00361641, Final residual = 6.07051e-07, No Iterations 2
bounding k, min: 0 max: 0.000636457 average: 0.000153929
ExecutionTime = 61.47 s  ClockTime = 61 s

Courant Number mean: 0.119521 max: 0.272501
Time = 0.49

GAMG:  Solving for cellDisplacementx, Initial residual = 0, Final residual = 0, No Iterations 0
GAMG:  Solving for cellDisplacementy, Initial residual = 0, Final residual = 0, No Iterations 0
GAMG:  Solving for cellDisplacementz, Initial residual = 0, Final residual = 0, No Iterations 0
PIMPLE: iteration 1
DILUPBiCG:  Solving for Ux, Initial residual = 0.0545917, Final residual = 0.000201142, No Iterations 1
DILUPBiCG:  Solving for Uy, Initial residual = 0.0109579, Final residual = 2.17948e-05, No Iterations 1
DILUPBiCG:  Solving for Uz, Initial residual = 0.0127621, Final residual = 1.15745e-05, No Iterations 1
GAMG:  Solving for p, Initial residual = 0.106998, Final residual = 0.000759449, No Iterations 4
GAMG:  Solving for p, Initial residual = 0.0139782, Final residual = 0.000131638, No Iterations 18
GAMG:  Solving for p, Initial residual = 0.00700411, Final residual = 5.3088e-05, No Iterations 5
time step continuity errors : sum local = 5.78013e-07, global = -9.13158e-08, cumulative = 9.179e-08
GAMG:  Solving for p, Initial residual = 0.0484078, Final residual = 0.000307518, No Iterations 4
GAMG:  Solving for p, Initial residual = 0.00684115, Final residual = 6.65922e-05, No Iterations 16
GAMG:  Solving for p, Initial residual = 0.0035084, Final residual = 2.82703e-05, No Iterations 5
time step continuity errors : sum local = 3.09542e-07, global = -1.0682e-07, cumulative = -1.50303e-08
PIMPLE: iteration 2
DILUPBiCG:  Solving for Ux, Initial residual = 0.014023, Final residual = 7.91264e-05, No Iterations 1
DILUPBiCG:  Solving for Uy, Initial residual = 0.00291287, Final residual = 5.75566e-06, No Iterations 1
DILUPBiCG:  Solving for Uz, Initial residual = 0.00255424, Final residual = 7.38534e-06, No Iterations 1
GAMG:  Solving for p, Initial residual = 0.0465237, Final residual = 0.000310844, No Iterations 6
GAMG:  Solving for p, Initial residual = 0.00956583, Final residual = 9.32225e-05, No Iterations 14
GAMG:  Solving for p, Initial residual = 0.00375483, Final residual = 3.17016e-05, No Iterations 10
time step continuity errors : sum local = 3.02406e-07, global = -7.72685e-08, cumulative = -9.22988e-08
GAMG:  Solving for p, Initial residual = 0.024446, Final residual = 0.000235115, No Iterations 4
GAMG:  Solving for p, Initial residual = 0.00485361, Final residual = 4.57007e-05, No Iterations 14
GAMG:  Solving for p, Initial residual = 0.00197212, Final residual = 1.83432e-05, No Iterations 4
time step continuity errors : sum local = 1.75513e-07, global = -6.36573e-08, cumulative = -1.55956e-07
PIMPLE: iteration 3
DILUPBiCG:  Solving for Ux, Initial residual = 0.0029333, Final residual = 2.4312e-06, No Iterations 2
DILUPBiCG:  Solving for Uy, Initial residual = 0.000663182, Final residual = 4.78759e-06, No Iterations 1
DILUPBiCG:  Solving for Uz, Initial residual = 0.00452995, Final residual = 1.62827e-06, No Iterations 2
GAMG:  Solving for p, Initial residual = 0.0455827, Final residual = 0.000337798, No Iterations 5
GAMG:  Solving for p, Initial residual = 0.010399, Final residual = 9.84272e-05, No Iterations 14
GAMG:  Solving for p, Initial residual = 0.00540862, Final residual = 5.06802e-05, No Iterations 10
time step continuity errors : sum local = 5.40814e-07, global = -1.42996e-07, cumulative = -2.98952e-07
GAMG:  Solving for p, Initial residual = 0.00258839, Final residual = 2.24074e-05, No Iterations 7
GAMG:  Solving for p, Initial residual = 0.0013741, Final residual = 1.31762e-05, No Iterations 4
GAMG:  Solving for p, Initial residual = 0.000564028, Final residual = 8.86776e-07, No Iterations 30
time step continuity errors : sum local = 9.34399e-09, global = 2.83972e-09, cumulative = -2.96113e-07
DILUPBiCG:  Solving for omega, Initial residual = 0.0012349, Final residual = 7.40804e-07, No Iterations 1
DILUPBiCG:  Solving for k, Initial residual = 0.00356466, Final residual = 6.02215e-07, No Iterations 2
bounding k, min: 0 max: 0.000620574 average: 0.000153012
ExecutionTime = 68.15 s  ClockTime = 68 s

End

