/*---------------------------------------------------------------------------*\
| =========                 |                                                 |
| \\      /  F ield         | OpenFOAM: The Open Source CFD Toolbox           |
|  \\    /   O peration     | Version:  2.3.1                                 |
|   \\  /    A nd           | Web:      www.OpenFOAM.org                      |
|    \\/     M anipulation  |                                                 |
\*---------------------------------------------------------------------------*/
Build  : 2.3.1-262087cdf8db
Exec   : pimpleDyMFoam
Date   : Jun 04 2023
Time   : 16:55:13
Host   : "jcosson-VirtualBox"
PID    : 4195
Case   : /home/jcosson/workspace/henersj_shootingdata/calcs/moderate_deformed/primal/10_intervals_04-06-23/sweep4/interval10
nProcs : 1
sigFpe : Enabling floating point exception trapping (FOAM_SIGFPE).
fileModificationChecking : Monitoring run-time modified files using timeStampMaster
allowSystemOperations : Allowing user-supplied system call operations

// * * * * * * * * * * * * * * * * * * * * * * * * * * * * * * * * * * * * * //
Create time

Create mesh for time = 0.49

Selecting dynamicFvMesh dynamicMotionSolverFvMesh
Selecting motion solver: displacementLaplacian
Selecting motion diffusion: quadratic
Selecting motion diffusion: quadratic
Selecting motion diffusion: inverseDistance

PIMPLE: no residual control data found. Calculations will employ 3 corrector loops

Reading field p

Reading field U

Reading/calculating face flux field phi

Selecting incompressible transport model Newtonian
Selecting turbulence model type RASModel
Selecting RAS turbulence model kOmegaSST
bounding k, min: 0 max: 0.000635952 average: 0.000155412
kOmegaSSTCoeffs
{
    alphaK1         0.85034;
    alphaK2         1;
    alphaOmega1     0.5;
    alphaOmega2     0.85616;
    gamma1          0.5532;
    gamma2          0.4403;
    beta1           0.075;
    beta2           0.0828;
    betaStar        0.09;
    a1              0.31;
    c1              10;
    Cmu             0.09;
    b1              1;
    F3              false;
}

Reading/calculating face velocity Uf

No finite volume options present

Courant Number mean: 0.115867 max: 0.263875

Starting time loop

Courant Number mean: 0.115867 max: 0.263875
Time = 0.491

GAMG:  Solving for cellDisplacementx, Initial residual = 0, Final residual = 0, No Iterations 0
GAMG:  Solving for cellDisplacementy, Initial residual = 0, Final residual = 0, No Iterations 0
GAMG:  Solving for cellDisplacementz, Initial residual = 0, Final residual = 0, No Iterations 0
PIMPLE: iteration 1
DILUPBiCG:  Solving for Ux, Initial residual = 0.0515623, Final residual = 0.00018975, No Iterations 1
DILUPBiCG:  Solving for Uy, Initial residual = 0.0105266, Final residual = 2.10549e-05, No Iterations 1
DILUPBiCG:  Solving for Uz, Initial residual = 0.0161974, Final residual = 1.51926e-05, No Iterations 1
GAMG:  Solving for p, Initial residual = 0.114797, Final residual = 0.000619215, No Iterations 4
GAMG:  Solving for p, Initial residual = 0.0160613, Final residual = 0.000151208, No Iterations 16
GAMG:  Solving for p, Initial residual = 0.00789985, Final residual = 7.47124e-05, No Iterations 4
time step continuity errors : sum local = 7.56807e-07, global = 1.80057e-07, cumulative = 1.80057e-07
GAMG:  Solving for p, Initial residual = 0.0522314, Final residual = 0.000260093, No Iterations 4
GAMG:  Solving for p, Initial residual = 0.00790518, Final residual = 6.76689e-05, No Iterations 16
GAMG:  Solving for p, Initial residual = 0.00397208, Final residual = 2.92782e-05, No Iterations 5
time step continuity errors : sum local = 2.98687e-07, global = 6.10517e-08, cumulative = 2.41109e-07
PIMPLE: iteration 2
DILUPBiCG:  Solving for Ux, Initial residual = 0.0131648, Final residual = 7.51294e-05, No Iterations 1
DILUPBiCG:  Solving for Uy, Initial residual = 0.00276292, Final residual = 5.54494e-06, No Iterations 1
DILUPBiCG:  Solving for Uz, Initial residual = 0.00254056, Final residual = 6.95805e-06, No Iterations 1
GAMG:  Solving for p, Initial residual = 0.0510281, Final residual = 0.000466586, No Iterations 5
GAMG:  Solving for p, Initial residual = 0.0114463, Final residual = 9.62359e-05, No Iterations 6
GAMG:  Solving for p, Initial residual = 0.0049529, Final residual = 4.35083e-05, No Iterations 4
time step continuity errors : sum local = 3.85271e-07, global = -1.53131e-07, cumulative = 8.79786e-08
GAMG:  Solving for p, Initial residual = 0.0272259, Final residual = 0.000250445, No Iterations 4
GAMG:  Solving for p, Initial residual = 0.00620744, Final residual = 5.71907e-05, No Iterations 12
GAMG:  Solving for p, Initial residual = 0.00243486, Final residual = 2.2625e-05, No Iterations 4
time step continuity errors : sum local = 2.00979e-07, global = -7.56557e-08, cumulative = 1.23228e-08
PIMPLE: iteration 3
DILUPBiCG:  Solving for Ux, Initial residual = 0.00271771, Final residual = 2.44298e-06, No Iterations 2
DILUPBiCG:  Solving for Uy, Initial residual = 0.000614566, Final residual = 4.81782e-06, No Iterations 1
DILUPBiCG:  Solving for Uz, Initial residual = 0.00411305, Final residual = 1.3178e-06, No Iterations 2
GAMG:  Solving for p, Initial residual = 0.0465869, Final residual = 0.000355381, No Iterations 5
GAMG:  Solving for p, Initial residual = 0.0109276, Final residual = 0.000102706, No Iterations 14
GAMG:  Solving for p, Initial residual = 0.00562802, Final residual = 5.4028e-05, No Iterations 10
time step continuity errors : sum local = 5.36116e-07, global = -1.42894e-07, cumulative = -1.30571e-07
GAMG:  Solving for p, Initial residual = 0.00264337, Final residual = 2.47545e-05, No Iterations 7
GAMG:  Solving for p, Initial residual = 0.00137018, Final residual = 1.30089e-05, No Iterations 5
GAMG:  Solving for p, Initial residual = 0.000540029, Final residual = 9.3465e-07, No Iterations 27
time step continuity errors : sum local = 9.15759e-09, global = 2.74234e-09, cumulative = -1.27829e-07
DILUPBiCG:  Solving for omega, Initial residual = 0.00132178, Final residual = 7.57443e-07, No Iterations 1
DILUPBiCG:  Solving for k, Initial residual = 0.0036587, Final residual = 5.93181e-07, No Iterations 2
bounding k, min: 0 max: 0.00062781 average: 0.00015445
ExecutionTime = 8.15 s  ClockTime = 8 s

Courant Number mean: 0.11268 max: 0.257106
Time = 0.492

GAMG:  Solving for cellDisplacementx, Initial residual = 0, Final residual = 0, No Iterations 0
GAMG:  Solving for cellDisplacementy, Initial residual = 0, Final residual = 0, No Iterations 0
GAMG:  Solving for cellDisplacementz, Initial residual = 0, Final residual = 0, No Iterations 0
PIMPLE: iteration 1
DILUPBiCG:  Solving for Ux, Initial residual = 0.0481904, Final residual = 0.000176595, No Iterations 1
DILUPBiCG:  Solving for Uy, Initial residual = 0.00992719, Final residual = 1.97287e-05, No Iterations 1
DILUPBiCG:  Solving for Uz, Initial residual = 0.0142813, Final residual = 1.23288e-05, No Iterations 1
GAMG:  Solving for p, Initial residual = 0.104819, Final residual = 0.000644341, No Iterations 4
GAMG:  Solving for p, Initial residual = 0.0139237, Final residual = 0.00012637, No Iterations 18
GAMG:  Solving for p, Initial residual = 0.00718782, Final residual = 7.15481e-05, No Iterations 5
time step continuity errors : sum local = 6.70524e-07, global = -2.90062e-07, cumulative = -4.17891e-07
GAMG:  Solving for p, Initial residual = 0.0479103, Final residual = 0.000266453, No Iterations 4
GAMG:  Solving for p, Initial residual = 0.0068465, Final residual = 6.51363e-05, No Iterations 16
GAMG:  Solving for p, Initial residual = 0.00361198, Final residual = 3.46351e-05, No Iterations 5
time step continuity errors : sum local = 3.26722e-07, global = -1.24944e-07, cumulative = -5.42835e-07
PIMPLE: iteration 2
DILUPBiCG:  Solving for Ux, Initial residual = 0.0121717, Final residual = 6.93847e-05, No Iterations 1
DILUPBiCG:  Solving for Uy, Initial residual = 0.00258358, Final residual = 5.17146e-06, No Iterations 1
DILUPBiCG:  Solving for Uz, Initial residual = 0.00270222, Final residual = 1.08939e-05, No Iterations 1
GAMG:  Solving for p, Initial residual = 0.045754, Final residual = 0.000332952, No Iterations 6
GAMG:  Solving for p, Initial residual = 0.010272, Final residual = 9.33124e-05, No Iterations 14
GAMG:  Solving for p, Initial residual = 0.00418134, Final residual = 3.99449e-05, No Iterations 4
time step continuity errors : sum local = 3.28499e-07, global = -1.19894e-07, cumulative = -6.62729e-07
GAMG:  Solving for p, Initial residual = 0.024281, Final residual = 0.000151469, No Iterations 6
GAMG:  Solving for p, Initial residual = 0.00545771, Final residual = 4.86904e-05, No Iterations 12
GAMG:  Solving for p, Initial residual = 0.00205833, Final residual = 1.92968e-05, No Iterations 4
time step continuity errors : sum local = 1.59067e-07, global = -5.72549e-08, cumulative = -7.19984e-07
PIMPLE: iteration 3
DILUPBiCG:  Solving for Ux, Initial residual = 0.0024499, Final residual = 2.59209e-06, No Iterations 2
DILUPBiCG:  Solving for Uy, Initial residual = 0.000568982, Final residual = 5.30186e-06, No Iterations 1
DILUPBiCG:  Solving for Uz, Initial residual = 0.00457145, Final residual = 1.77915e-06, No Iterations 2
GAMG:  Solving for p, Initial residual = 0.0474271, Final residual = 0.00034993, No Iterations 5
GAMG:  Solving for p, Initial residual = 0.0107246, Final residual = 0.000103717, No Iterations 14
GAMG:  Solving for p, Initial residual = 0.00571021, Final residual = 5.31658e-05, No Iterations 10
time step continuity errors : sum local = 4.88414e-07, global = -1.29389e-07, cumulative = -8.49372e-07
GAMG:  Solving for p, Initial residual = 0.00265827, Final residual = 2.63e-05, No Iterations 6
GAMG:  Solving for p, Initial residual = 0.00139785, Final residual = 1.36107e-05, No Iterations 4
GAMG:  Solving for p, Initial residual = 0.000578619, Final residual = 9.48151e-07, No Iterations 23
time step continuity errors : sum local = 8.59676e-09, global = 2.62788e-09, cumulative = -8.46744e-07
DILUPBiCG:  Solving for omega, Initial residual = 0.00134063, Final residual = 7.45251e-07, No Iterations 1
DILUPBiCG:  Solving for k, Initial residual = 0.00361317, Final residual = 5.8798e-07, No Iterations 2
bounding k, min: 0 max: 0.000619389 average: 0.000153514
ExecutionTime = 14.5 s  ClockTime = 14 s

Courant Number mean: 0.1098 max: 0.251066
Time = 0.493

GAMG:  Solving for cellDisplacementx, Initial residual = 0, Final residual = 0, No Iterations 0
GAMG:  Solving for cellDisplacementy, Initial residual = 0, Final residual = 0, No Iterations 0
GAMG:  Solving for cellDisplacementz, Initial residual = 0, Final residual = 0, No Iterations 0
PIMPLE: iteration 1
DILUPBiCG:  Solving for Ux, Initial residual = 0.0443169, Final residual = 0.000162521, No Iterations 1
DILUPBiCG:  Solving for Uy, Initial residual = 0.00925104, Final residual = 1.82924e-05, No Iterations 1
DILUPBiCG:  Solving for Uz, Initial residual = 0.0138474, Final residual = 1.47915e-05, No Iterations 1
GAMG:  Solving for p, Initial residual = 0.103645, Final residual = 0.000519356, No Iterations 4
GAMG:  Solving for p, Initial residual = 0.0134225, Final residual = 0.000120941, No Iterations 18
GAMG:  Solving for p, Initial residual = 0.00726182, Final residual = 5.76243e-05, No Iterations 5
time step continuity errors : sum local = 4.93661e-07, global = 1.18672e-07, cumulative = -7.28073e-07
GAMG:  Solving for p, Initial residual = 0.0478863, Final residual = 0.000228366, No Iterations 4
GAMG:  Solving for p, Initial residual = 0.00655463, Final residual = 6.47612e-05, No Iterations 16
GAMG:  Solving for p, Initial residual = 0.00362667, Final residual = 2.82261e-05, No Iterations 5
time step continuity errors : sum local = 2.43242e-07, global = 4.63848e-08, cumulative = -6.81688e-07
PIMPLE: iteration 2
DILUPBiCG:  Solving for Ux, Initial residual = 0.0111021, Final residual = 6.3212e-05, No Iterations 1
DILUPBiCG:  Solving for Uy, Initial residual = 0.00237754, Final residual = 4.73192e-06, No Iterations 1
DILUPBiCG:  Solving for Uz, Initial residual = 0.0025738, Final residual = 1.90205e-05, No Iterations 1
GAMG:  Solving for p, Initial residual = 0.0456682, Final residual = 0.000307769, No Iterations 6
GAMG:  Solving for p, Initial residual = 0.0112314, Final residual = 0.000102185, No Iterations 14
GAMG:  Solving for p, Initial residual = 0.0043184, Final residual = 4.25122e-05, No Iterations 4
time step continuity errors : sum local = 3.18637e-07, global = -1.20729e-07, cumulative = -8.02417e-07
GAMG:  Solving for p, Initial residual = 0.0245754, Final residual = 0.000218268, No Iterations 5
GAMG:  Solving for p, Initial residual = 0.00640327, Final residual = 6.27043e-05, No Iterations 6
GAMG:  Solving for p, Initial residual = 0.00207582, Final residual = 2.03084e-05, No Iterations 5
time step continuity errors : sum local = 1.52399e-07, global = -4.27205e-08, cumulative = -8.45137e-07
PIMPLE: iteration 3
DILUPBiCG:  Solving for Ux, Initial residual = 0.00216123, Final residual = 3.01933e-06, No Iterations 2
DILUPBiCG:  Solving for Uy, Initial residual = 0.000497522, Final residual = 5.83588e-06, No Iterations 1
DILUPBiCG:  Solving for Uz, Initial residual = 0.00349534, Final residual = 1.37821e-06, No Iterations 2
GAMG:  Solving for p, Initial residual = 0.0485075, Final residual = 0.000364556, No Iterations 5
GAMG:  Solving for p, Initial residual = 0.0112467, Final residual = 0.000107611, No Iterations 14
GAMG:  Solving for p, Initial residual = 0.00597325, Final residual = 5.66905e-05, No Iterations 10
time step continuity errors : sum local = 4.74123e-07, global = -1.27681e-07, cumulative = -9.72818e-07
GAMG:  Solving for p, Initial residual = 0.00270793, Final residual = 2.54774e-05, No Iterations 7
GAMG:  Solving for p, Initial residual = 0.00139363, Final residual = 1.35348e-05, No Iterations 5
GAMG:  Solving for p, Initial residual = 0.000543616, Final residual = 8.77037e-07, No Iterations 29
time step continuity errors : sum local = 7.23425e-09, global = 2.14199e-09, cumulative = -9.70676e-07
DILUPBiCG:  Solving for omega, Initial residual = 0.00135598, Final residual = 7.33737e-07, No Iterations 1
DILUPBiCG:  Solving for k, Initial residual = 0.00356875, Final residual = 5.88024e-07, No Iterations 2
bounding k, min: 0 max: 0.00061071 average: 0.000152604
ExecutionTime = 20.48 s  ClockTime = 20 s

Courant Number mean: 0.107228 max: 0.245669
Time = 0.494

GAMG:  Solving for cellDisplacementx, Initial residual = 0, Final residual = 0, No Iterations 0
GAMG:  Solving for cellDisplacementy, Initial residual = 0, Final residual = 0, No Iterations 0
GAMG:  Solving for cellDisplacementz, Initial residual = 0, Final residual = 0, No Iterations 0
PIMPLE: iteration 1
DILUPBiCG:  Solving for Ux, Initial residual = 0.0401807, Final residual = 0.000146989, No Iterations 1
DILUPBiCG:  Solving for Uy, Initial residual = 0.008459, Final residual = 1.66433e-05, No Iterations 1
DILUPBiCG:  Solving for Uz, Initial residual = 0.011928, Final residual = 1.09323e-05, No Iterations 1
GAMG:  Solving for p, Initial residual = 0.10084, Final residual = 0.000477886, No Iterations 4
GAMG:  Solving for p, Initial residual = 0.0133574, Final residual = 0.000124213, No Iterations 16
GAMG:  Solving for p, Initial residual = 0.00707463, Final residual = 6.83793e-05, No Iterations 4
time step continuity errors : sum local = 5.26571e-07, global = 1.77811e-07, cumulative = -7.92865e-07
GAMG:  Solving for p, Initial residual = 0.0469021, Final residual = 0.000208608, No Iterations 4
GAMG:  Solving for p, Initial residual = 0.00653562, Final residual = 5.60879e-05, No Iterations 16
GAMG:  Solving for p, Initial residual = 0.00354796, Final residual = 3.19769e-05, No Iterations 4
time step continuity errors : sum local = 2.48256e-07, global = 6.36213e-08, cumulative = -7.29244e-07
PIMPLE: iteration 2
DILUPBiCG:  Solving for Ux, Initial residual = 0.00992617, Final residual = 5.65727e-05, No Iterations 1
DILUPBiCG:  Solving for Uy, Initial residual = 0.00214804, Final residual = 4.27617e-06, No Iterations 1
DILUPBiCG:  Solving for Uz, Initial residual = 0.0027334, Final residual = 7.44477e-07, No Iterations 2
GAMG:  Solving for p, Initial residual = 0.0443049, Final residual = 0.000341467, No Iterations 6
GAMG:  Solving for p, Initial residual = 0.0113571, Final residual = 9.56132e-05, No Iterations 14
GAMG:  Solving for p, Initial residual = 0.00433125, Final residual = 4.16069e-05, No Iterations 4
time step continuity errors : sum local = 2.81643e-07, global = -1.05949e-07, cumulative = -8.35193e-07
GAMG:  Solving for p, Initial residual = 0.023754, Final residual = 0.000157249, No Iterations 6
GAMG:  Solving for p, Initial residual = 0.00618217, Final residual = 6.1319e-05, No Iterations 10
GAMG:  Solving for p, Initial residual = 0.00205231, Final residual = 2.02833e-05, No Iterations 12
time step continuity errors : sum local = 1.37622e-07, global = -3.9877e-08, cumulative = -8.7507e-07
PIMPLE: iteration 3
DILUPBiCG:  Solving for Ux, Initial residual = 0.00187194, Final residual = 5.57693e-06, No Iterations 2
DILUPBiCG:  Solving for Uy, Initial residual = 0.000446073, Final residual = 7.09856e-06, No Iterations 1
DILUPBiCG:  Solving for Uz, Initial residual = 0.00369516, Final residual = 2.58028e-06, No Iterations 2
GAMG:  Solving for p, Initial residual = 0.0506045, Final residual = 0.000366547, No Iterations 5
GAMG:  Solving for p, Initial residual = 0.0113089, Final residual = 0.000110543, No Iterations 14
GAMG:  Solving for p, Initial residual = 0.00621481, Final residual = 5.82704e-05, No Iterations 10
time step continuity errors : sum local = 4.38831e-07, global = -1.18809e-07, cumulative = -9.93879e-07
GAMG:  Solving for p, Initial residual = 0.00279511, Final residual = 2.77033e-05, No Iterations 7
GAMG:  Solving for p, Initial residual = 0.00143956, Final residual = 1.18826e-05, No Iterations 6
GAMG:  Solving for p, Initial residual = 0.000593382, Final residual = 9.23621e-07, No Iterations 30
time step continuity errors : sum local = 6.85457e-09, global = 2.10349e-09, cumulative = -9.91775e-07
DILUPBiCG:  Solving for omega, Initial residual = 0.00136824, Final residual = 7.22892e-07, No Iterations 1
DILUPBiCG:  Solving for k, Initial residual = 0.00352621, Final residual = 5.92498e-07, No Iterations 2
bounding k, min: 0 max: 0.000601799 average: 0.000151721
ExecutionTime = 26.73 s  ClockTime = 27 s

Courant Number mean: 0.10498 max: 0.240929
Time = 0.495

GAMG:  Solving for cellDisplacementx, Initial residual = 0, Final residual = 0, No Iterations 0
GAMG:  Solving for cellDisplacementy, Initial residual = 0, Final residual = 0, No Iterations 0
GAMG:  Solving for cellDisplacementz, Initial residual = 0, Final residual = 0, No Iterations 0
PIMPLE: iteration 1
DILUPBiCG:  Solving for Ux, Initial residual = 0.0355814, Final residual = 0.000130373, No Iterations 1
DILUPBiCG:  Solving for Uy, Initial residual = 0.00758194, Final residual = 1.48702e-05, No Iterations 1
DILUPBiCG:  Solving for Uz, Initial residual = 0.0114611, Final residual = 1.49898e-05, No Iterations 1
GAMG:  Solving for p, Initial residual = 0.0991801, Final residual = 0.000563397, No Iterations 4
GAMG:  Solving for p, Initial residual = 0.0126113, Final residual = 0.000112938, No Iterations 16
GAMG:  Solving for p, Initial residual = 0.00667472, Final residual = 5.26505e-05, No Iterations 5
time step continuity errors : sum local = 3.59154e-07, global = 5.93419e-08, cumulative = -9.32433e-07
GAMG:  Solving for p, Initial residual = 0.0468157, Final residual = 0.00027226, No Iterations 4
GAMG:  Solving for p, Initial residual = 0.00611704, Final residual = 6.10512e-05, No Iterations 14
GAMG:  Solving for p, Initial residual = 0.0032481, Final residual = 2.15678e-05, No Iterations 5
time step continuity errors : sum local = 1.481e-07, global = -4.31519e-08, cumulative = -9.75585e-07
PIMPLE: iteration 2
DILUPBiCG:  Solving for Ux, Initial residual = 0.00866965, Final residual = 4.95517e-05, No Iterations 1
DILUPBiCG:  Solving for Uy, Initial residual = 0.00189095, Final residual = 3.74968e-06, No Iterations 1
DILUPBiCG:  Solving for Uz, Initial residual = 0.00273292, Final residual = 4.33692e-05, No Iterations 1
GAMG:  Solving for p, Initial residual = 0.0440828, Final residual = 0.000323933, No Iterations 6
GAMG:  Solving for p, Initial residual = 0.0131347, Final residual = 0.000124284, No Iterations 12
GAMG:  Solving for p, Initial residual = 0.00420442, Final residual = 3.99184e-05, No Iterations 14
time step continuity errors : sum local = 2.38744e-07, global = -7.37034e-08, cumulative = -1.04929e-06
GAMG:  Solving for p, Initial residual = 0.0236734, Final residual = 0.000226707, No Iterations 5
GAMG:  Solving for p, Initial residual = 0.00725039, Final residual = 6.60331e-05, No Iterations 9
GAMG:  Solving for p, Initial residual = 0.00201672, Final residual = 1.84102e-05, No Iterations 16
time step continuity errors : sum local = 1.10157e-07, global = -3.24158e-08, cumulative = -1.0817e-06
PIMPLE: iteration 3
DILUPBiCG:  Solving for Ux, Initial residual = 0.00156986, Final residual = 9.33517e-06, No Iterations 2
DILUPBiCG:  Solving for Uy, Initial residual = 0.000369856, Final residual = 1.23258e-07, No Iterations 2
DILUPBiCG:  Solving for Uz, Initial residual = 0.00274396, Final residual = 1.29786e-07, No Iterations 3
GAMG:  Solving for p, Initial residual = 0.0524498, Final residual = 0.000387865, No Iterations 5
GAMG:  Solving for p, Initial residual = 0.0118943, Final residual = 0.00011615, No Iterations 14
GAMG:  Solving for p, Initial residual = 0.00653251, Final residual = 6.1211e-05, No Iterations 10
time step continuity errors : sum local = 4.05735e-07, global = -1.11132e-07, cumulative = -1.19284e-06
GAMG:  Solving for p, Initial residual = 0.00283509, Final residual = 2.74673e-05, No Iterations 7
GAMG:  Solving for p, Initial residual = 0.00146715, Final residual = 1.17566e-05, No Iterations 6
GAMG:  Solving for p, Initial residual = 0.000562544, Final residual = 9.656e-07, No Iterations 28
time step continuity errors : sum local = 6.30554e-09, global = 1.93346e-09, cumulative = -1.1909e-06
DILUPBiCG:  Solving for omega, Initial residual = 0.00137674, Final residual = 7.13052e-07, No Iterations 1
DILUPBiCG:  Solving for k, Initial residual = 0.00348469, Final residual = 6.00207e-07, No Iterations 2
bounding k, min: 0 max: 0.000592515 average: 0.000150864
ExecutionTime = 33.16 s  ClockTime = 33 s

Courant Number mean: 0.103059 max: 0.236873
Time = 0.496

GAMG:  Solving for cellDisplacementx, Initial residual = 0, Final residual = 0, No Iterations 0
GAMG:  Solving for cellDisplacementy, Initial residual = 0, Final residual = 0, No Iterations 0
GAMG:  Solving for cellDisplacementz, Initial residual = 0, Final residual = 0, No Iterations 0
PIMPLE: iteration 1
DILUPBiCG:  Solving for Ux, Initial residual = 0.0307573, Final residual = 0.000112703, No Iterations 1
DILUPBiCG:  Solving for Uy, Initial residual = 0.00659623, Final residual = 1.28741e-05, No Iterations 1
DILUPBiCG:  Solving for Uz, Initial residual = 0.00931825, Final residual = 1.04128e-05, No Iterations 1
GAMG:  Solving for p, Initial residual = 0.0950289, Final residual = 0.000429972, No Iterations 4
GAMG:  Solving for p, Initial residual = 0.0125494, Final residual = 0.000124637, No Iterations 8
GAMG:  Solving for p, Initial residual = 0.00648173, Final residual = 5.78274e-05, No Iterations 4
time step continuity errors : sum local = 3.40243e-07, global = 1.2259e-07, cumulative = -1.06831e-06
GAMG:  Solving for p, Initial residual = 0.0453119, Final residual = 0.000203808, No Iterations 4
GAMG:  Solving for p, Initial residual = 0.00605893, Final residual = 5.7188e-05, No Iterations 10
GAMG:  Solving for p, Initial residual = 0.00329004, Final residual = 2.61014e-05, No Iterations 4
time step continuity errors : sum local = 1.54779e-07, global = 5.6948e-08, cumulative = -1.01137e-06
PIMPLE: iteration 2
DILUPBiCG:  Solving for Ux, Initial residual = 0.00733694, Final residual = 4.2181e-05, No Iterations 1
DILUPBiCG:  Solving for Uy, Initial residual = 0.00161545, Final residual = 3.22759e-06, No Iterations 1
DILUPBiCG:  Solving for Uz, Initial residual = 0.00286529, Final residual = 0.000203615, No Iterations 1
GAMG:  Solving for p, Initial residual = 0.0421413, Final residual = 0.000354817, No Iterations 6
GAMG:  Solving for p, Initial residual = 0.0138389, Final residual = 0.000115854, No Iterations 12
GAMG:  Solving for p, Initial residual = 0.00439958, Final residual = 3.80093e-05, No Iterations 14
time step continuity errors : sum local = 1.96515e-07, global = -6.01909e-08, cumulative = -1.07156e-06
GAMG:  Solving for p, Initial residual = 0.0226469, Final residual = 0.00016274, No Iterations 6
GAMG:  Solving for p, Initial residual = 0.00739944, Final residual = 6.10997e-05, No Iterations 10
GAMG:  Solving for p, Initial residual = 0.00204022, Final residual = 1.9942e-05, No Iterations 14
time step continuity errors : sum local = 1.03197e-07, global = -3.10203e-08, cumulative = -1.10258e-06
PIMPLE: iteration 3
DILUPBiCG:  Solving for Ux, Initial residual = 0.00125087, Final residual = 1.79741e-06, No Iterations 2
DILUPBiCG:  Solving for Uy, Initial residual = 0.000308019, Final residual = 1.54685e-07, No Iterations 2
DILUPBiCG:  Solving for Uz, Initial residual = 0.00274321, Final residual = 3.05267e-06, No Iterations 2
GAMG:  Solving for p, Initial residual = 0.0562492, Final residual = 0.000395477, No Iterations 5
GAMG:  Solving for p, Initial residual = 0.0120167, Final residual = 0.00010423, No Iterations 16
GAMG:  Solving for p, Initial residual = 0.00704431, Final residual = 6.67273e-05, No Iterations 8
time step continuity errors : sum local = 3.80299e-07, global = -8.61132e-08, cumulative = -1.18869e-06
GAMG:  Solving for p, Initial residual = 0.00288042, Final residual = 2.78032e-05, No Iterations 7
GAMG:  Solving for p, Initial residual = 0.00151892, Final residual = 1.47864e-05, No Iterations 5
GAMG:  Solving for p, Initial residual = 0.000604609, Final residual = 8.74358e-07, No Iterations 31
time step continuity errors : sum local = 4.91297e-09, global = 1.46903e-09, cumulative = -1.18722e-06
DILUPBiCG:  Solving for omega, Initial residual = 0.001382, Final residual = 7.0437e-07, No Iterations 1
DILUPBiCG:  Solving for k, Initial residual = 0.00344415, Final residual = 6.1256e-07, No Iterations 2
bounding k, min: 0 max: 0.000582873 average: 0.000150033
ExecutionTime = 39.41 s  ClockTime = 39 s

Courant Number mean: 0.101478 max: 0.233511
Time = 0.497

GAMG:  Solving for cellDisplacementx, Initial residual = 0, Final residual = 0, No Iterations 0
GAMG:  Solving for cellDisplacementy, Initial residual = 0, Final residual = 0, No Iterations 0
GAMG:  Solving for cellDisplacementz, Initial residual = 0, Final residual = 0, No Iterations 0
PIMPLE: iteration 1
DILUPBiCG:  Solving for Ux, Initial residual = 0.0255984, Final residual = 9.3965e-05, No Iterations 1
DILUPBiCG:  Solving for Uy, Initial residual = 0.00555347, Final residual = 1.08397e-05, No Iterations 1
DILUPBiCG:  Solving for Uz, Initial residual = 0.00935603, Final residual = 1.63237e-05, No Iterations 1
GAMG:  Solving for p, Initial residual = 0.0924035, Final residual = 0.000690237, No Iterations 3
GAMG:  Solving for p, Initial residual = 0.0116847, Final residual = 8.7082e-05, No Iterations 5
GAMG:  Solving for p, Initial residual = 0.00545606, Final residual = 4.07431e-05, No Iterations 4
time step continuity errors : sum local = 2.00133e-07, global = 6.81206e-08, cumulative = -1.1191e-06
GAMG:  Solving for p, Initial residual = 0.0451398, Final residual = 0.000308133, No Iterations 3
GAMG:  Solving for p, Initial residual = 0.00574433, Final residual = 4.98481e-05, No Iterations 7
GAMG:  Solving for p, Initial residual = 0.00279671, Final residual = 1.89658e-05, No Iterations 4
time step continuity errors : sum local = 9.38245e-08, global = 3.22757e-08, cumulative = -1.08682e-06
PIMPLE: iteration 2
DILUPBiCG:  Solving for Ux, Initial residual = 0.00594215, Final residual = 3.46015e-05, No Iterations 1
DILUPBiCG:  Solving for Uy, Initial residual = 0.00132036, Final residual = 2.66388e-06, No Iterations 1
DILUPBiCG:  Solving for Uz, Initial residual = 0.00292411, Final residual = 0.000140292, No Iterations 1
GAMG:  Solving for p, Initial residual = 0.0415497, Final residual = 0.000356949, No Iterations 6
GAMG:  Solving for p, Initial residual = 0.0174072, Final residual = 0.000166904, No Iterations 9
GAMG:  Solving for p, Initial residual = 0.00424903, Final residual = 4.05746e-05, No Iterations 17
time step continuity errors : sum local = 1.74854e-07, global = -4.8826e-08, cumulative = -1.13565e-06
GAMG:  Solving for p, Initial residual = 0.0220699, Final residual = 0.000164429, No Iterations 6
GAMG:  Solving for p, Initial residual = 0.00895318, Final residual = 8.17959e-05, No Iterations 7
GAMG:  Solving for p, Initial residual = 0.00196043, Final residual = 1.75478e-05, No Iterations 19
time step continuity errors : sum local = 7.55572e-08, global = -2.1253e-08, cumulative = -1.1569e-06
PIMPLE: iteration 3
DILUPBiCG:  Solving for Ux, Initial residual = 0.000912528, Final residual = 7.56413e-07, No Iterations 2
DILUPBiCG:  Solving for Uy, Initial residual = 0.000224779, Final residual = 5.55396e-06, No Iterations 1
DILUPBiCG:  Solving for Uz, Initial residual = 0.00202818, Final residual = 1.09654e-06, No Iterations 2
GAMG:  Solving for p, Initial residual = 0.0607777, Final residual = 0.000423547, No Iterations 5
GAMG:  Solving for p, Initial residual = 0.0127699, Final residual = 0.000112805, No Iterations 16
GAMG:  Solving for p, Initial residual = 0.00787379, Final residual = 7.18107e-05, No Iterations 8
time step continuity errors : sum local = 3.38413e-07, global = -7.86377e-08, cumulative = -1.23554e-06
GAMG:  Solving for p, Initial residual = 0.0029816, Final residual = 2.89723e-05, No Iterations 7
GAMG:  Solving for p, Initial residual = 0.00160827, Final residual = 1.44234e-05, No Iterations 5
GAMG:  Solving for p, Initial residual = 0.000596917, Final residual = 9.96805e-07, No Iterations 29
time step continuity errors : sum local = 4.62826e-09, global = 1.40926e-09, cumulative = -1.23413e-06
DILUPBiCG:  Solving for omega, Initial residual = 0.00138381, Final residual = 6.97016e-07, No Iterations 1
DILUPBiCG:  Solving for k, Initial residual = 0.00340449, Final residual = 6.29727e-07, No Iterations 2
bounding k, min: 0 max: 0.000572951 average: 0.000149229
ExecutionTime = 45.94 s  ClockTime = 46 s

Courant Number mean: 0.100238 max: 0.230862
Time = 0.498

GAMG:  Solving for cellDisplacementx, Initial residual = 0, Final residual = 0, No Iterations 0
GAMG:  Solving for cellDisplacementy, Initial residual = 0, Final residual = 0, No Iterations 0
GAMG:  Solving for cellDisplacementz, Initial residual = 0, Final residual = 0, No Iterations 0
PIMPLE: iteration 1
DILUPBiCG:  Solving for Ux, Initial residual = 0.0202302, Final residual = 7.45628e-05, No Iterations 1
DILUPBiCG:  Solving for Uy, Initial residual = 0.00443025, Final residual = 8.64386e-06, No Iterations 1
DILUPBiCG:  Solving for Uz, Initial residual = 0.00789826, Final residual = 1.28627e-05, No Iterations 1
GAMG:  Solving for p, Initial residual = 0.0874005, Final residual = 0.000367136, No Iterations 4
GAMG:  Solving for p, Initial residual = 0.0127435, Final residual = 0.000103572, No Iterations 10
GAMG:  Solving for p, Initial residual = 0.00613859, Final residual = 5.21299e-05, No Iterations 6
time step continuity errors : sum local = 2.05236e-07, global = -6.50047e-08, cumulative = -1.29914e-06
GAMG:  Solving for p, Initial residual = 0.0432982, Final residual = 0.000182045, No Iterations 4
GAMG:  Solving for p, Initial residual = 0.00649478, Final residual = 5.45261e-05, No Iterations 10
GAMG:  Solving for p, Initial residual = 0.00303479, Final residual = 2.69752e-05, No Iterations 6
time step continuity errors : sum local = 1.06261e-07, global = -3.1469e-08, cumulative = -1.33061e-06
PIMPLE: iteration 2
DILUPBiCG:  Solving for Ux, Initial residual = 0.00450168, Final residual = 2.69866e-05, No Iterations 1
DILUPBiCG:  Solving for Uy, Initial residual = 0.00101424, Final residual = 2.15702e-06, No Iterations 1
DILUPBiCG:  Solving for Uz, Initial residual = 0.00297739, Final residual = 9.86134e-07, No Iterations 2
GAMG:  Solving for p, Initial residual = 0.0397449, Final residual = 0.000340528, No Iterations 8
GAMG:  Solving for p, Initial residual = 0.021964, Final residual = 0.000204057, No Iterations 5
GAMG:  Solving for p, Initial residual = 0.00402342, Final residual = 3.44965e-05, No Iterations 21
time step continuity errors : sum local = 1.17663e-07, global = -3.38581e-08, cumulative = -1.36446e-06
GAMG:  Solving for p, Initial residual = 0.0212897, Final residual = 0.000186234, No Iterations 6
GAMG:  Solving for p, Initial residual = 0.0106088, Final residual = 0.000101237, No Iterations 6
GAMG:  Solving for p, Initial residual = 0.00208077, Final residual = 1.92964e-05, No Iterations 20
time step continuity errors : sum local = 6.59678e-08, global = -1.86461e-08, cumulative = -1.38311e-06
PIMPLE: iteration 3
DILUPBiCG:  Solving for Ux, Initial residual = 0.000566773, Final residual = 6.90117e-06, No Iterations 1
DILUPBiCG:  Solving for Uy, Initial residual = 0.000152288, Final residual = 1.64468e-06, No Iterations 1
DILUPBiCG:  Solving for Uz, Initial residual = 0.00191961, Final residual = 9.01491e-07, No Iterations 2
GAMG:  Solving for p, Initial residual = 0.0693152, Final residual = 0.000452644, No Iterations 5
GAMG:  Solving for p, Initial residual = 0.0133476, Final residual = 0.00012576, No Iterations 16
GAMG:  Solving for p, Initial residual = 0.00906274, Final residual = 7.75644e-05, No Iterations 8
time step continuity errors : sum local = 2.8679e-07, global = -6.94823e-08, cumulative = -1.45259e-06
GAMG:  Solving for p, Initial residual = 0.00313217, Final residual = 3.04168e-05, No Iterations 7
GAMG:  Solving for p, Initial residual = 0.00166116, Final residual = 1.47377e-05, No Iterations 5
GAMG:  Solving for p, Initial residual = 0.000616385, Final residual = 9.95307e-07, No Iterations 29
time step continuity errors : sum local = 3.62534e-09, global = 1.1065e-09, cumulative = -1.45149e-06
DILUPBiCG:  Solving for omega, Initial residual = 0.00138234, Final residual = 6.91048e-07, No Iterations 1
DILUPBiCG:  Solving for k, Initial residual = 0.00336563, Final residual = 6.51792e-07, No Iterations 2
bounding k, min: 0 max: 0.000562825 average: 0.000148452
ExecutionTime = 52.97 s  ClockTime = 53 s

Courant Number mean: 0.0993481 max: 0.228931
Time = 0.499

GAMG:  Solving for cellDisplacementx, Initial residual = 0, Final residual = 0, No Iterations 0
GAMG:  Solving for cellDisplacementy, Initial residual = 0, Final residual = 0, No Iterations 0
GAMG:  Solving for cellDisplacementz, Initial residual = 0, Final residual = 0, No Iterations 0
PIMPLE: iteration 1
DILUPBiCG:  Solving for Ux, Initial residual = 0.014704, Final residual = 5.43877e-05, No Iterations 1
DILUPBiCG:  Solving for Uy, Initial residual = 0.00327988, Final residual = 6.48268e-06, No Iterations 1
DILUPBiCG:  Solving for Uz, Initial residual = 0.00904246, Final residual = 1.89263e-05, No Iterations 1
GAMG:  Solving for p, Initial residual = 0.0838433, Final residual = 0.000601642, No Iterations 4
GAMG:  Solving for p, Initial residual = 0.0202847, Final residual = 0.000167807, No Iterations 10
GAMG:  Solving for p, Initial residual = 0.00667032, Final residual = 6.24172e-05, No Iterations 12
time step continuity errors : sum local = 1.79447e-07, global = -5.13763e-08, cumulative = -1.50286e-06
GAMG:  Solving for p, Initial residual = 0.0429457, Final residual = 0.00028248, No Iterations 4
GAMG:  Solving for p, Initial residual = 0.0102004, Final residual = 0.000101832, No Iterations 8
GAMG:  Solving for p, Initial residual = 0.00312133, Final residual = 2.63907e-05, No Iterations 16
time step continuity errors : sum local = 7.57776e-08, global = -2.25075e-08, cumulative = -1.52537e-06
PIMPLE: iteration 2
DILUPBiCG:  Solving for Ux, Initial residual = 0.00301064, Final residual = 2.06595e-05, No Iterations 1
DILUPBiCG:  Solving for Uy, Initial residual = 0.000695127, Final residual = 1.79879e-06, No Iterations 1
DILUPBiCG:  Solving for Uz, Initial residual = 0.00304511, Final residual = 1.19574e-06, No Iterations 2
GAMG:  Solving for p, Initial residual = 0.0396039, Final residual = 0.000366441, No Iterations 8
GAMG:  Solving for p, Initial residual = 0.0279765, Final residual = 0.000240177, No Iterations 5
GAMG:  Solving for p, Initial residual = 0.00470707, Final residual = 4.32907e-05, No Iterations 21
time step continuity errors : sum local = 1.08146e-07, global = -3.07813e-08, cumulative = -1.55615e-06
GAMG:  Solving for p, Initial residual = 0.0213617, Final residual = 0.000173685, No Iterations 8
GAMG:  Solving for p, Initial residual = 0.0135024, Final residual = 0.000111607, No Iterations 5
GAMG:  Solving for p, Initial residual = 0.00228539, Final residual = 2.25395e-05, No Iterations 19
time step continuity errors : sum local = 5.62454e-08, global = -1.57845e-08, cumulative = -1.57193e-06
PIMPLE: iteration 3
DILUPBiCG:  Solving for Ux, Initial residual = 0.000227104, Final residual = 1.82021e-06, No Iterations 1
DILUPBiCG:  Solving for Uy, Initial residual = 7.91499e-05, Final residual = 5.10109e-07, No Iterations 1
DILUPBiCG:  Solving for Uz, Initial residual = 0.00142512, Final residual = 4.95961e-07, No Iterations 2
GAMG:  Solving for p, Initial residual = 0.0833781, Final residual = 0.000782208, No Iterations 3
GAMG:  Solving for p, Initial residual = 0.0141193, Final residual = 0.000128262, No Iterations 20
GAMG:  Solving for p, Initial residual = 0.013839, Final residual = 0.000132573, No Iterations 4
time step continuity errors : sum local = 3.5032e-07, global = -5.82944e-08, cumulative = -1.63023e-06
GAMG:  Solving for p, Initial residual = 0.00374189, Final residual = 3.21743e-05, No Iterations 8
GAMG:  Solving for p, Initial residual = 0.00198321, Final residual = 1.9526e-05, No Iterations 4
GAMG:  Solving for p, Initial residual = 0.000678993, Final residual = 9.96569e-07, No Iterations 27
time step continuity errors : sum local = 2.58611e-09, global = 9.06131e-10, cumulative = -1.62932e-06
DILUPBiCG:  Solving for omega, Initial residual = 0.00137747, Final residual = 6.86496e-07, No Iterations 1
DILUPBiCG:  Solving for k, Initial residual = 0.0033273, Final residual = 6.76315e-07, No Iterations 2
bounding k, min: 0 max: 0.000552546 average: 0.000147703
ExecutionTime = 60.1 s  ClockTime = 60 s

Courant Number mean: 0.098808 max: 0.22773
Time = 0.5

GAMG:  Solving for cellDisplacementx, Initial residual = 0, Final residual = 0, No Iterations 0
GAMG:  Solving for cellDisplacementy, Initial residual = 0, Final residual = 0, No Iterations 0
GAMG:  Solving for cellDisplacementz, Initial residual = 0, Final residual = 0, No Iterations 0
PIMPLE: iteration 1
DILUPBiCG:  Solving for Ux, Initial residual = 0.00913072, Final residual = 3.42185e-05, No Iterations 1
DILUPBiCG:  Solving for Uy, Initial residual = 0.00211666, Final residual = 4.30995e-06, No Iterations 1
DILUPBiCG:  Solving for Uz, Initial residual = 0.00910756, Final residual = 1.8027e-05, No Iterations 1
GAMG:  Solving for p, Initial residual = 0.0812473, Final residual = 0.00073139, No Iterations 6
GAMG:  Solving for p, Initial residual = 0.0477092, Final residual = 0.000409998, No Iterations 4
GAMG:  Solving for p, Initial residual = 0.00842724, Final residual = 7.47475e-05, No Iterations 21
time step continuity errors : sum local = 1.33477e-07, global = -3.84149e-08, cumulative = -1.66774e-06
GAMG:  Solving for p, Initial residual = 0.0442769, Final residual = 0.000416579, No Iterations 5
GAMG:  Solving for p, Initial residual = 0.0231486, Final residual = 0.000191586, No Iterations 4
GAMG:  Solving for p, Initial residual = 0.00428847, Final residual = 3.70907e-05, No Iterations 12
time step continuity errors : sum local = 6.54896e-08, global = -1.8787e-08, cumulative = -1.68652e-06
PIMPLE: iteration 2
DILUPBiCG:  Solving for Ux, Initial residual = 0.00150979, Final residual = 2.48885e-05, No Iterations 1
DILUPBiCG:  Solving for Uy, Initial residual = 0.000380082, Final residual = 6.11893e-06, No Iterations 1
DILUPBiCG:  Solving for Uz, Initial residual = 0.0029592, Final residual = 9.3645e-07, No Iterations 2
GAMG:  Solving for p, Initial residual = 0.041845, Final residual = 0.000406945, No Iterations 11
GAMG:  Solving for p, Initial residual = 0.035818, Final residual = 0.00030723, No Iterations 6
GAMG:  Solving for p, Initial residual = 0.00644033, Final residual = 6.30817e-05, No Iterations 20
time step continuity errors : sum local = 1.00054e-07, global = -2.83828e-08, cumulative = -1.71491e-06
GAMG:  Solving for p, Initial residual = 0.0232079, Final residual = 0.000214063, No Iterations 9
GAMG:  Solving for p, Initial residual = 0.0166967, Final residual = 0.000163696, No Iterations 6
GAMG:  Solving for p, Initial residual = 0.00324457, Final residual = 3.13762e-05, No Iterations 20
time step continuity errors : sum local = 4.96086e-08, global = -1.40612e-08, cumulative = -1.72897e-06
PIMPLE: iteration 3
DILUPBiCG:  Solving for Ux, Initial residual = 0.000189908, Final residual = 1.80649e-06, No Iterations 1
DILUPBiCG:  Solving for Uy, Initial residual = 7.20462e-05, Final residual = 6.23575e-07, No Iterations 1
DILUPBiCG:  Solving for Uz, Initial residual = 0.00118398, Final residual = 7.90257e-06, No Iterations 1
GAMG:  Solving for p, Initial residual = 0.115711, Final residual = 0.00104641, No Iterations 3
GAMG:  Solving for p, Initial residual = 0.0167981, Final residual = 0.000159312, No Iterations 20
GAMG:  Solving for p, Initial residual = 0.0181938, Final residual = 0.000176633, No Iterations 4
time step continuity errors : sum local = 2.78262e-07, global = -4.42873e-08, cumulative = -1.77326e-06
GAMG:  Solving for p, Initial residual = 0.00484069, Final residual = 3.81637e-05, No Iterations 8
GAMG:  Solving for p, Initial residual = 0.00242238, Final residual = 1.87336e-05, No Iterations 6
GAMG:  Solving for p, Initial residual = 0.000818868, Final residual = 9.8284e-07, No Iterations 23
time step continuity errors : sum local = 1.51216e-09, global = 5.40935e-10, cumulative = -1.77272e-06
DILUPBiCG:  Solving for omega, Initial residual = 0.00136937, Final residual = 6.83507e-07, No Iterations 1
DILUPBiCG:  Solving for k, Initial residual = 0.00328949, Final residual = 7.02825e-07, No Iterations 2
bounding k, min: 0 max: 0.000542189 average: 0.000146983
ExecutionTime = 67.29 s  ClockTime = 67 s

End

