/*---------------------------------------------------------------------------*\
| =========                 |                                                 |
| \\      /  F ield         | OpenFOAM: The Open Source CFD Toolbox           |
|  \\    /   O peration     | Version:  2.3.1                                 |
|   \\  /    A nd           | Web:      www.OpenFOAM.org                      |
|    \\/     M anipulation  |                                                 |
\*---------------------------------------------------------------------------*/
Build  : 2.3.1-262087cdf8db
Exec   : pimpleDyMFoam
Date   : Jun 04 2023
Time   : 16:55:13
Host   : "jcosson-VirtualBox"
PID    : 4188
Case   : /home/jcosson/workspace/henersj_shootingdata/calcs/moderate_deformed/primal/10_intervals_04-06-23/sweep4/interval4
nProcs : 1
sigFpe : Enabling floating point exception trapping (FOAM_SIGFPE).
fileModificationChecking : Monitoring run-time modified files using timeStampMaster
allowSystemOperations : Allowing user-supplied system call operations

// * * * * * * * * * * * * * * * * * * * * * * * * * * * * * * * * * * * * * //
Create time

Create mesh for time = 0.43

Selecting dynamicFvMesh dynamicMotionSolverFvMesh
Selecting motion solver: displacementLaplacian
Selecting motion diffusion: quadratic
Selecting motion diffusion: quadratic
Selecting motion diffusion: inverseDistance

PIMPLE: no residual control data found. Calculations will employ 3 corrector loops

Reading field p

Reading field U

Reading/calculating face flux field phi

Selecting incompressible transport model Newtonian
Selecting turbulence model type RASModel
Selecting RAS turbulence model kOmegaSST
kOmegaSSTCoeffs
{
    alphaK1         0.85034;
    alphaK2         1;
    alphaOmega1     0.5;
    alphaOmega2     0.85616;
    gamma1          0.5532;
    gamma2          0.4403;
    beta1           0.075;
    beta2           0.0828;
    betaStar        0.09;
    a1              0.31;
    c1              10;
    Cmu             0.09;
    b1              1;
    F3              false;
}

Reading/calculating face velocity Uf

No finite volume options present

Courant Number mean: 0.216338 max: 0.47018

Starting time loop

Courant Number mean: 0.216338 max: 0.47018
Time = 0.431

GAMG:  Solving for cellDisplacementx, Initial residual = 0, Final residual = 0, No Iterations 0
GAMG:  Solving for cellDisplacementy, Initial residual = 0, Final residual = 0, No Iterations 0
GAMG:  Solving for cellDisplacementz, Initial residual = 0, Final residual = 0, No Iterations 0
PIMPLE: iteration 1
DILUPBiCG:  Solving for Ux, Initial residual = 0.0507884, Final residual = 0.000165156, No Iterations 1
DILUPBiCG:  Solving for Uy, Initial residual = 0.00819407, Final residual = 1.81382e-05, No Iterations 1
DILUPBiCG:  Solving for Uz, Initial residual = 0.0164628, Final residual = 2.0449e-05, No Iterations 1
GAMG:  Solving for p, Initial residual = 0.12033, Final residual = 0.00073594, No Iterations 6
GAMG:  Solving for p, Initial residual = 0.0152498, Final residual = 0.000137352, No Iterations 16
GAMG:  Solving for p, Initial residual = 0.00663902, Final residual = 5.80333e-05, No Iterations 10
time step continuity errors : sum local = 8.56419e-07, global = -2.20984e-07, cumulative = -2.20984e-07
GAMG:  Solving for p, Initial residual = 0.0522849, Final residual = 0.0004566, No Iterations 4
GAMG:  Solving for p, Initial residual = 0.00756173, Final residual = 6.98287e-05, No Iterations 16
GAMG:  Solving for p, Initial residual = 0.00344632, Final residual = 3.24164e-05, No Iterations 10
time step continuity errors : sum local = 4.78581e-07, global = -1.25275e-07, cumulative = -3.46259e-07
PIMPLE: iteration 2
DILUPBiCG:  Solving for Ux, Initial residual = 0.0142966, Final residual = 5.9718e-05, No Iterations 1
DILUPBiCG:  Solving for Uy, Initial residual = 0.00232986, Final residual = 7.04442e-06, No Iterations 1
DILUPBiCG:  Solving for Uz, Initial residual = 0.0029052, Final residual = 9.03381e-06, No Iterations 1
GAMG:  Solving for p, Initial residual = 0.0525979, Final residual = 0.000516237, No Iterations 4
GAMG:  Solving for p, Initial residual = 0.00971748, Final residual = 8.56916e-05, No Iterations 16
GAMG:  Solving for p, Initial residual = 0.00423433, Final residual = 3.63929e-05, No Iterations 10
time step continuity errors : sum local = 4.57191e-07, global = 1.17399e-07, cumulative = -2.2886e-07
GAMG:  Solving for p, Initial residual = 0.0272022, Final residual = 0.000223437, No Iterations 4
GAMG:  Solving for p, Initial residual = 0.00476152, Final residual = 4.13596e-05, No Iterations 14
GAMG:  Solving for p, Initial residual = 0.00197021, Final residual = 1.77667e-05, No Iterations 10
time step continuity errors : sum local = 2.24497e-07, global = 5.66435e-08, cumulative = -1.72217e-07
PIMPLE: iteration 3
DILUPBiCG:  Solving for Ux, Initial residual = 0.00337368, Final residual = 1.34035e-06, No Iterations 2
DILUPBiCG:  Solving for Uy, Initial residual = 0.000564339, Final residual = 9.29162e-06, No Iterations 1
DILUPBiCG:  Solving for Uz, Initial residual = 0.00735314, Final residual = 3.99203e-06, No Iterations 2
GAMG:  Solving for p, Initial residual = 0.0419109, Final residual = 0.000358532, No Iterations 5
GAMG:  Solving for p, Initial residual = 0.0104445, Final residual = 9.15929e-05, No Iterations 8
GAMG:  Solving for p, Initial residual = 0.00462174, Final residual = 4.015e-05, No Iterations 10
time step continuity errors : sum local = 5.65147e-07, global = 1.45358e-07, cumulative = -2.68584e-08
GAMG:  Solving for p, Initial residual = 0.00262779, Final residual = 2.4145e-05, No Iterations 18
GAMG:  Solving for p, Initial residual = 0.00152248, Final residual = 1.21503e-05, No Iterations 4
GAMG:  Solving for p, Initial residual = 0.000569067, Final residual = 9.093e-07, No Iterations 36
time step continuity errors : sum local = 1.27494e-08, global = -3.73728e-09, cumulative = -3.05957e-08
DILUPBiCG:  Solving for omega, Initial residual = 0.000763411, Final residual = 8.23923e-07, No Iterations 1
DILUPBiCG:  Solving for k, Initial residual = 0.00534833, Final residual = 1.18475e-06, No Iterations 2
ExecutionTime = 8.66 s  ClockTime = 9 s

Courant Number mean: 0.221783 max: 0.482733
Time = 0.432

GAMG:  Solving for cellDisplacementx, Initial residual = 0, Final residual = 0, No Iterations 0
GAMG:  Solving for cellDisplacementy, Initial residual = 0, Final residual = 0, No Iterations 0
GAMG:  Solving for cellDisplacementz, Initial residual = 0, Final residual = 0, No Iterations 0
PIMPLE: iteration 1
DILUPBiCG:  Solving for Ux, Initial residual = 0.0486109, Final residual = 0.000157778, No Iterations 1
DILUPBiCG:  Solving for Uy, Initial residual = 0.00783728, Final residual = 1.76524e-05, No Iterations 1
DILUPBiCG:  Solving for Uz, Initial residual = 0.0143929, Final residual = 1.91674e-05, No Iterations 1
GAMG:  Solving for p, Initial residual = 0.112314, Final residual = 0.000770081, No Iterations 6
GAMG:  Solving for p, Initial residual = 0.0138296, Final residual = 0.000123771, No Iterations 18
GAMG:  Solving for p, Initial residual = 0.00613425, Final residual = 6.03134e-05, No Iterations 4
time step continuity errors : sum local = 8.75067e-07, global = -3.00152e-07, cumulative = -3.30747e-07
GAMG:  Solving for p, Initial residual = 0.0488177, Final residual = 0.00045862, No Iterations 4
GAMG:  Solving for p, Initial residual = 0.00687914, Final residual = 6.38672e-05, No Iterations 18
GAMG:  Solving for p, Initial residual = 0.00320877, Final residual = 2.67751e-05, No Iterations 10
time step continuity errors : sum local = 3.88778e-07, global = -1.01131e-07, cumulative = -4.31878e-07
PIMPLE: iteration 2
DILUPBiCG:  Solving for Ux, Initial residual = 0.0137586, Final residual = 5.64318e-05, No Iterations 1
DILUPBiCG:  Solving for Uy, Initial residual = 0.00223245, Final residual = 6.96002e-06, No Iterations 1
DILUPBiCG:  Solving for Uz, Initial residual = 0.00279019, Final residual = 8.50924e-06, No Iterations 1
GAMG:  Solving for p, Initial residual = 0.0486733, Final residual = 0.000481723, No Iterations 5
GAMG:  Solving for p, Initial residual = 0.00917241, Final residual = 8.81205e-05, No Iterations 13
GAMG:  Solving for p, Initial residual = 0.00387069, Final residual = 3.71557e-05, No Iterations 10
time step continuity errors : sum local = 4.58048e-07, global = 1.2163e-07, cumulative = -3.10248e-07
GAMG:  Solving for p, Initial residual = 0.0253006, Final residual = 0.000227694, No Iterations 4
GAMG:  Solving for p, Initial residual = 0.00447932, Final residual = 4.13659e-05, No Iterations 14
GAMG:  Solving for p, Initial residual = 0.00182926, Final residual = 1.68324e-05, No Iterations 10
time step continuity errors : sum local = 2.08817e-07, global = 5.30823e-08, cumulative = -2.57165e-07
PIMPLE: iteration 3
DILUPBiCG:  Solving for Ux, Initial residual = 0.00324958, Final residual = 1.30838e-06, No Iterations 2
DILUPBiCG:  Solving for Uy, Initial residual = 0.000534208, Final residual = 8.99605e-06, No Iterations 1
DILUPBiCG:  Solving for Uz, Initial residual = 0.00733256, Final residual = 2.61231e-06, No Iterations 2
GAMG:  Solving for p, Initial residual = 0.0412454, Final residual = 0.000353823, No Iterations 5
GAMG:  Solving for p, Initial residual = 0.0104305, Final residual = 9.10952e-05, No Iterations 8
GAMG:  Solving for p, Initial residual = 0.00450866, Final residual = 4.04827e-05, No Iterations 10
time step continuity errors : sum local = 5.59591e-07, global = 1.44226e-07, cumulative = -1.1294e-07
GAMG:  Solving for p, Initial residual = 0.00258573, Final residual = 2.43159e-05, No Iterations 18
GAMG:  Solving for p, Initial residual = 0.00153256, Final residual = 1.26114e-05, No Iterations 4
GAMG:  Solving for p, Initial residual = 0.00055599, Final residual = 9.46149e-07, No Iterations 36
time step continuity errors : sum local = 1.30388e-08, global = -3.8251e-09, cumulative = -1.16765e-07
DILUPBiCG:  Solving for omega, Initial residual = 0.000798409, Final residual = 8.62181e-07, No Iterations 1
DILUPBiCG:  Solving for k, Initial residual = 0.00550207, Final residual = 1.20008e-06, No Iterations 2
ExecutionTime = 16.09 s  ClockTime = 16 s

Courant Number mean: 0.227098 max: 0.495008
Time = 0.433

GAMG:  Solving for cellDisplacementx, Initial residual = 0, Final residual = 0, No Iterations 0
GAMG:  Solving for cellDisplacementy, Initial residual = 0, Final residual = 0, No Iterations 0
GAMG:  Solving for cellDisplacementz, Initial residual = 0, Final residual = 0, No Iterations 0
PIMPLE: iteration 1
DILUPBiCG:  Solving for Ux, Initial residual = 0.0465826, Final residual = 0.000150576, No Iterations 1
DILUPBiCG:  Solving for Uy, Initial residual = 0.00742663, Final residual = 1.69837e-05, No Iterations 1
DILUPBiCG:  Solving for Uz, Initial residual = 0.0136097, Final residual = 1.72712e-05, No Iterations 1
GAMG:  Solving for p, Initial residual = 0.110354, Final residual = 0.000702552, No Iterations 6
GAMG:  Solving for p, Initial residual = 0.0136395, Final residual = 0.000132788, No Iterations 16
GAMG:  Solving for p, Initial residual = 0.00599438, Final residual = 5.7807e-05, No Iterations 10
time step continuity errors : sum local = 8.17372e-07, global = -2.11799e-07, cumulative = -3.28564e-07
GAMG:  Solving for p, Initial residual = 0.0481869, Final residual = 0.000438089, No Iterations 4
GAMG:  Solving for p, Initial residual = 0.00675291, Final residual = 5.79387e-05, No Iterations 18
GAMG:  Solving for p, Initial residual = 0.0031279, Final residual = 3.01558e-05, No Iterations 4
time step continuity errors : sum local = 4.26712e-07, global = -1.58774e-07, cumulative = -4.87338e-07
PIMPLE: iteration 2
DILUPBiCG:  Solving for Ux, Initial residual = 0.0131111, Final residual = 5.29821e-05, No Iterations 1
DILUPBiCG:  Solving for Uy, Initial residual = 0.00212386, Final residual = 6.87987e-06, No Iterations 1
DILUPBiCG:  Solving for Uz, Initial residual = 0.00273782, Final residual = 8.37402e-06, No Iterations 1
GAMG:  Solving for p, Initial residual = 0.0480005, Final residual = 0.000309733, No Iterations 6
GAMG:  Solving for p, Initial residual = 0.00897991, Final residual = 7.68487e-05, No Iterations 16
GAMG:  Solving for p, Initial residual = 0.00363245, Final residual = 3.30357e-05, No Iterations 10
time step continuity errors : sum local = 3.96943e-07, global = 1.04143e-07, cumulative = -3.83196e-07
GAMG:  Solving for p, Initial residual = 0.024833, Final residual = 0.000225857, No Iterations 4
GAMG:  Solving for p, Initial residual = 0.00432222, Final residual = 4.16351e-05, No Iterations 14
GAMG:  Solving for p, Initial residual = 0.0017628, Final residual = 1.52255e-05, No Iterations 12
time step continuity errors : sum local = 1.84205e-07, global = 5.32795e-08, cumulative = -3.29916e-07
PIMPLE: iteration 3
DILUPBiCG:  Solving for Ux, Initial residual = 0.00307707, Final residual = 1.28995e-06, No Iterations 2
DILUPBiCG:  Solving for Uy, Initial residual = 0.000510773, Final residual = 9.5451e-06, No Iterations 1
DILUPBiCG:  Solving for Uz, Initial residual = 0.00692869, Final residual = 5.99528e-06, No Iterations 2
GAMG:  Solving for p, Initial residual = 0.0419158, Final residual = 0.00036468, No Iterations 5
GAMG:  Solving for p, Initial residual = 0.0106295, Final residual = 8.95096e-05, No Iterations 10
GAMG:  Solving for p, Initial residual = 0.00472333, Final residual = 4.07065e-05, No Iterations 10
time step continuity errors : sum local = 5.4784e-07, global = 1.41448e-07, cumulative = -1.88468e-07
GAMG:  Solving for p, Initial residual = 0.00267727, Final residual = 2.50622e-05, No Iterations 18
GAMG:  Solving for p, Initial residual = 0.00157813, Final residual = 1.26642e-05, No Iterations 4
GAMG:  Solving for p, Initial residual = 0.00058114, Final residual = 9.69254e-07, No Iterations 36
time step continuity errors : sum local = 1.29974e-08, global = -3.81257e-09, cumulative = -1.92281e-07
DILUPBiCG:  Solving for omega, Initial residual = 0.000834938, Final residual = 9.05964e-07, No Iterations 1
DILUPBiCG:  Solving for k, Initial residual = 0.00565837, Final residual = 1.21937e-06, No Iterations 2
ExecutionTime = 23.52 s  ClockTime = 23 s

Courant Number mean: 0.232254 max: 0.506964
Time = 0.434

GAMG:  Solving for cellDisplacementx, Initial residual = 0, Final residual = 0, No Iterations 0
GAMG:  Solving for cellDisplacementy, Initial residual = 0, Final residual = 0, No Iterations 0
GAMG:  Solving for cellDisplacementz, Initial residual = 0, Final residual = 0, No Iterations 0
PIMPLE: iteration 1
DILUPBiCG:  Solving for Ux, Initial residual = 0.0442724, Final residual = 0.000143157, No Iterations 1
DILUPBiCG:  Solving for Uy, Initial residual = 0.00706408, Final residual = 1.64963e-05, No Iterations 1
DILUPBiCG:  Solving for Uz, Initial residual = 0.0128762, Final residual = 1.79523e-05, No Iterations 1
GAMG:  Solving for p, Initial residual = 0.11023, Final residual = 0.000730089, No Iterations 6
GAMG:  Solving for p, Initial residual = 0.0138113, Final residual = 0.000118341, No Iterations 18
GAMG:  Solving for p, Initial residual = 0.00610638, Final residual = 5.82562e-05, No Iterations 4
time step continuity errors : sum local = 8.02986e-07, global = -2.76027e-07, cumulative = -4.68308e-07
GAMG:  Solving for p, Initial residual = 0.0481584, Final residual = 0.000436929, No Iterations 4
GAMG:  Solving for p, Initial residual = 0.00685657, Final residual = 6.1034e-05, No Iterations 18
GAMG:  Solving for p, Initial residual = 0.00318974, Final residual = 2.60564e-05, No Iterations 10
time step continuity errors : sum local = 3.59332e-07, global = -9.38029e-08, cumulative = -5.6211e-07
PIMPLE: iteration 2
DILUPBiCG:  Solving for Ux, Initial residual = 0.0125391, Final residual = 4.9907e-05, No Iterations 1
DILUPBiCG:  Solving for Uy, Initial residual = 0.00202445, Final residual = 6.79582e-06, No Iterations 1
DILUPBiCG:  Solving for Uz, Initial residual = 0.00266837, Final residual = 8.03855e-06, No Iterations 1
GAMG:  Solving for p, Initial residual = 0.047828, Final residual = 0.000303229, No Iterations 6
GAMG:  Solving for p, Initial residual = 0.00942204, Final residual = 9.16819e-05, No Iterations 14
GAMG:  Solving for p, Initial residual = 0.00379798, Final residual = 3.69472e-05, No Iterations 10
time step continuity errors : sum local = 4.32215e-07, global = 1.1044e-07, cumulative = -4.5167e-07
GAMG:  Solving for p, Initial residual = 0.0249385, Final residual = 0.000233386, No Iterations 4
GAMG:  Solving for p, Initial residual = 0.00457868, Final residual = 4.19303e-05, No Iterations 14
GAMG:  Solving for p, Initial residual = 0.00182519, Final residual = 1.77847e-05, No Iterations 10
time step continuity errors : sum local = 2.0942e-07, global = 5.32e-08, cumulative = -3.9847e-07
PIMPLE: iteration 3
DILUPBiCG:  Solving for Ux, Initial residual = 0.00293078, Final residual = 1.23749e-06, No Iterations 2
DILUPBiCG:  Solving for Uy, Initial residual = 0.000479711, Final residual = 9.17437e-06, No Iterations 1
DILUPBiCG:  Solving for Uz, Initial residual = 0.006825, Final residual = 2.99055e-06, No Iterations 2
GAMG:  Solving for p, Initial residual = 0.0419556, Final residual = 0.000361299, No Iterations 5
GAMG:  Solving for p, Initial residual = 0.0108203, Final residual = 0.000106062, No Iterations 8
GAMG:  Solving for p, Initial residual = 0.0046492, Final residual = 4.07444e-05, No Iterations 12
time step continuity errors : sum local = 5.34193e-07, global = 1.55992e-07, cumulative = -2.42478e-07
GAMG:  Solving for p, Initial residual = 0.00270638, Final residual = 2.46896e-05, No Iterations 18
GAMG:  Solving for p, Initial residual = 0.00161706, Final residual = 1.24314e-05, No Iterations 4
GAMG:  Solving for p, Initial residual = 0.000576493, Final residual = 9.18211e-07, No Iterations 36
time step continuity errors : sum local = 1.1998e-08, global = -3.51928e-09, cumulative = -2.45997e-07
DILUPBiCG:  Solving for omega, Initial residual = 0.000873931, Final residual = 9.5545e-07, No Iterations 1
DILUPBiCG:  Solving for k, Initial residual = 0.00581686, Final residual = 1.24664e-06, No Iterations 2
ExecutionTime = 30.79 s  ClockTime = 31 s

Courant Number mean: 0.237238 max: 0.518543
Time = 0.435

GAMG:  Solving for cellDisplacementx, Initial residual = 0, Final residual = 0, No Iterations 0
GAMG:  Solving for cellDisplacementy, Initial residual = 0, Final residual = 0, No Iterations 0
GAMG:  Solving for cellDisplacementz, Initial residual = 0, Final residual = 0, No Iterations 0
PIMPLE: iteration 1
DILUPBiCG:  Solving for Ux, Initial residual = 0.0420766, Final residual = 0.00013591, No Iterations 1
DILUPBiCG:  Solving for Uy, Initial residual = 0.00664738, Final residual = 1.57845e-05, No Iterations 1
DILUPBiCG:  Solving for Uz, Initial residual = 0.0122124, Final residual = 1.6445e-05, No Iterations 1
GAMG:  Solving for p, Initial residual = 0.108343, Final residual = 0.00066341, No Iterations 6
GAMG:  Solving for p, Initial residual = 0.0136513, Final residual = 0.000128129, No Iterations 16
GAMG:  Solving for p, Initial residual = 0.00597888, Final residual = 5.66488e-05, No Iterations 10
time step continuity errors : sum local = 7.54585e-07, global = -1.95892e-07, cumulative = -4.41889e-07
GAMG:  Solving for p, Initial residual = 0.0475603, Final residual = 0.000416563, No Iterations 4
GAMG:  Solving for p, Initial residual = 0.00673928, Final residual = 6.51896e-05, No Iterations 16
GAMG:  Solving for p, Initial residual = 0.00310422, Final residual = 3.09449e-05, No Iterations 10
time step continuity errors : sum local = 4.12224e-07, global = -1.08812e-07, cumulative = -5.50701e-07
PIMPLE: iteration 2
DILUPBiCG:  Solving for Ux, Initial residual = 0.0118704, Final residual = 4.66742e-05, No Iterations 1
DILUPBiCG:  Solving for Uy, Initial residual = 0.00191455, Final residual = 6.71408e-06, No Iterations 1
DILUPBiCG:  Solving for Uz, Initial residual = 0.00264602, Final residual = 8.0051e-06, No Iterations 1
GAMG:  Solving for p, Initial residual = 0.0471683, Final residual = 0.000317645, No Iterations 6
GAMG:  Solving for p, Initial residual = 0.00935837, Final residual = 9.26602e-05, No Iterations 14
GAMG:  Solving for p, Initial residual = 0.00364336, Final residual = 3.37596e-05, No Iterations 12
time step continuity errors : sum local = 3.82046e-07, global = 1.09287e-07, cumulative = -4.41414e-07
GAMG:  Solving for p, Initial residual = 0.0244788, Final residual = 0.000234878, No Iterations 4
GAMG:  Solving for p, Initial residual = 0.00447113, Final residual = 4.24654e-05, No Iterations 14
GAMG:  Solving for p, Initial residual = 0.00177989, Final residual = 1.59033e-05, No Iterations 12
time step continuity errors : sum local = 1.81144e-07, global = 5.23852e-08, cumulative = -3.89028e-07
PIMPLE: iteration 3
DILUPBiCG:  Solving for Ux, Initial residual = 0.00274571, Final residual = 1.19559e-06, No Iterations 2
DILUPBiCG:  Solving for Uy, Initial residual = 0.000453569, Final residual = 9.61665e-06, No Iterations 1
DILUPBiCG:  Solving for Uz, Initial residual = 0.00650714, Final residual = 1.02281e-07, No Iterations 3
GAMG:  Solving for p, Initial residual = 0.0426544, Final residual = 0.00036881, No Iterations 5
GAMG:  Solving for p, Initial residual = 0.0110839, Final residual = 9.61032e-05, No Iterations 10
GAMG:  Solving for p, Initial residual = 0.00486221, Final residual = 4.55449e-05, No Iterations 10
time step continuity errors : sum local = 5.76451e-07, global = 1.49571e-07, cumulative = -2.39457e-07
GAMG:  Solving for p, Initial residual = 0.00279622, Final residual = 2.52708e-05, No Iterations 18
GAMG:  Solving for p, Initial residual = 0.00166448, Final residual = 1.25491e-05, No Iterations 4
GAMG:  Solving for p, Initial residual = 0.000601149, Final residual = 9.42544e-07, No Iterations 36
time step continuity errors : sum local = 1.18887e-08, global = -3.48713e-09, cumulative = -2.42944e-07
DILUPBiCG:  Solving for omega, Initial residual = 0.000914364, Final residual = 1.01058e-06, No Iterations 1
DILUPBiCG:  Solving for k, Initial residual = 0.00595781, Final residual = 1.27542e-06, No Iterations 2
ExecutionTime = 38.15 s  ClockTime = 38 s

Courant Number mean: 0.242025 max: 0.529711
Time = 0.436

GAMG:  Solving for cellDisplacementx, Initial residual = 0, Final residual = 0, No Iterations 0
GAMG:  Solving for cellDisplacementy, Initial residual = 0, Final residual = 0, No Iterations 0
GAMG:  Solving for cellDisplacementz, Initial residual = 0, Final residual = 0, No Iterations 0
PIMPLE: iteration 1
DILUPBiCG:  Solving for Ux, Initial residual = 0.039669, Final residual = 0.000128457, No Iterations 1
DILUPBiCG:  Solving for Uy, Initial residual = 0.00627352, Final residual = 1.52359e-05, No Iterations 1
DILUPBiCG:  Solving for Uz, Initial residual = 0.0115626, Final residual = 1.70796e-05, No Iterations 1
GAMG:  Solving for p, Initial residual = 0.108119, Final residual = 0.00106691, No Iterations 4
GAMG:  Solving for p, Initial residual = 0.013867, Final residual = 0.000135934, No Iterations 18
GAMG:  Solving for p, Initial residual = 0.00630913, Final residual = 5.79113e-05, No Iterations 10
time step continuity errors : sum local = 7.44445e-07, global = -1.9499e-07, cumulative = -4.37934e-07
GAMG:  Solving for p, Initial residual = 0.0474716, Final residual = 0.000399587, No Iterations 4
GAMG:  Solving for p, Initial residual = 0.0067993, Final residual = 6.6724e-05, No Iterations 16
GAMG:  Solving for p, Initial residual = 0.00315071, Final residual = 3.1477e-05, No Iterations 10
time step continuity errors : sum local = 4.04799e-07, global = -1.06573e-07, cumulative = -5.44507e-07
PIMPLE: iteration 2
DILUPBiCG:  Solving for Ux, Initial residual = 0.0112107, Final residual = 4.36439e-05, No Iterations 1
DILUPBiCG:  Solving for Uy, Initial residual = 0.00180291, Final residual = 6.61024e-06, No Iterations 1
DILUPBiCG:  Solving for Uz, Initial residual = 0.00263455, Final residual = 8.00125e-06, No Iterations 1
GAMG:  Solving for p, Initial residual = 0.0469784, Final residual = 0.000308473, No Iterations 6
GAMG:  Solving for p, Initial residual = 0.00974904, Final residual = 9.30472e-05, No Iterations 14
GAMG:  Solving for p, Initial residual = 0.00382082, Final residual = 3.23829e-05, No Iterations 12
time step continuity errors : sum local = 3.53373e-07, global = 1.02195e-07, cumulative = -4.42312e-07
GAMG:  Solving for p, Initial residual = 0.0245652, Final residual = 0.000237526, No Iterations 4
GAMG:  Solving for p, Initial residual = 0.00469287, Final residual = 4.25552e-05, No Iterations 14
GAMG:  Solving for p, Initial residual = 0.00182741, Final residual = 1.57467e-05, No Iterations 12
time step continuity errors : sum local = 1.73008e-07, global = 5.05107e-08, cumulative = -3.91801e-07
PIMPLE: iteration 3
DILUPBiCG:  Solving for Ux, Initial residual = 0.00258781, Final residual = 1.12249e-06, No Iterations 2
DILUPBiCG:  Solving for Uy, Initial residual = 0.000422649, Final residual = 9.26883e-06, No Iterations 1
DILUPBiCG:  Solving for Uz, Initial residual = 0.00626292, Final residual = 4.42388e-06, No Iterations 2
GAMG:  Solving for p, Initial residual = 0.0428529, Final residual = 0.000366878, No Iterations 5
GAMG:  Solving for p, Initial residual = 0.0112413, Final residual = 9.80391e-05, No Iterations 10
GAMG:  Solving for p, Initial residual = 0.0048335, Final residual = 4.70757e-05, No Iterations 10
time step continuity errors : sum local = 5.74743e-07, global = 1.5e-07, cumulative = -2.41801e-07
GAMG:  Solving for p, Initial residual = 0.00282488, Final residual = 2.52238e-05, No Iterations 18
GAMG:  Solving for p, Initial residual = 0.00170192, Final residual = 1.26425e-05, No Iterations 4
GAMG:  Solving for p, Initial residual = 0.000599063, Final residual = 9.28472e-07, No Iterations 36
time step continuity errors : sum local = 1.13033e-08, global = -3.31591e-09, cumulative = -2.45117e-07
DILUPBiCG:  Solving for omega, Initial residual = 0.000955315, Final residual = 1.07089e-06, No Iterations 1
DILUPBiCG:  Solving for k, Initial residual = 0.00608394, Final residual = 1.3077e-06, No Iterations 2
ExecutionTime = 45.44 s  ClockTime = 45 s

Courant Number mean: 0.246601 max: 0.540409
Time = 0.437

GAMG:  Solving for cellDisplacementx, Initial residual = 0, Final residual = 0, No Iterations 0
GAMG:  Solving for cellDisplacementy, Initial residual = 0, Final residual = 0, No Iterations 0
GAMG:  Solving for cellDisplacementz, Initial residual = 0, Final residual = 0, No Iterations 0
PIMPLE: iteration 1
DILUPBiCG:  Solving for Ux, Initial residual = 0.0373458, Final residual = 0.000121192, No Iterations 1
DILUPBiCG:  Solving for Uy, Initial residual = 0.00585528, Final residual = 1.44895e-05, No Iterations 1
DILUPBiCG:  Solving for Uz, Initial residual = 0.0110685, Final residual = 1.62243e-05, No Iterations 1
GAMG:  Solving for p, Initial residual = 0.106288, Final residual = 0.00104317, No Iterations 4
GAMG:  Solving for p, Initial residual = 0.0137211, Final residual = 0.000126844, No Iterations 18
GAMG:  Solving for p, Initial residual = 0.00618581, Final residual = 5.36668e-05, No Iterations 10
time step continuity errors : sum local = 6.61135e-07, global = -1.70897e-07, cumulative = -4.16014e-07
GAMG:  Solving for p, Initial residual = 0.0469249, Final residual = 0.000390158, No Iterations 4
GAMG:  Solving for p, Initial residual = 0.00673032, Final residual = 6.2172e-05, No Iterations 16
GAMG:  Solving for p, Initial residual = 0.00309353, Final residual = 2.9617e-05, No Iterations 10
time step continuity errors : sum local = 3.64801e-07, global = -9.64583e-08, cumulative = -5.12472e-07
PIMPLE: iteration 2
DILUPBiCG:  Solving for Ux, Initial residual = 0.0105261, Final residual = 4.06522e-05, No Iterations 1
DILUPBiCG:  Solving for Uy, Initial residual = 0.00169267, Final residual = 6.53357e-06, No Iterations 1
DILUPBiCG:  Solving for Uz, Initial residual = 0.00263788, Final residual = 7.99381e-06, No Iterations 1
GAMG:  Solving for p, Initial residual = 0.046321, Final residual = 0.000323187, No Iterations 6
GAMG:  Solving for p, Initial residual = 0.0097357, Final residual = 9.38675e-05, No Iterations 14
GAMG:  Solving for p, Initial residual = 0.00368305, Final residual = 3.49605e-05, No Iterations 12
time step continuity errors : sum local = 3.65745e-07, global = 1.04885e-07, cumulative = -4.07587e-07
GAMG:  Solving for p, Initial residual = 0.0241061, Final residual = 0.000240728, No Iterations 4
GAMG:  Solving for p, Initial residual = 0.0046196, Final residual = 4.3095e-05, No Iterations 14
GAMG:  Solving for p, Initial residual = 0.00179873, Final residual = 1.65658e-05, No Iterations 12
time step continuity errors : sum local = 1.74493e-07, global = 5.04849e-08, cumulative = -3.57102e-07
PIMPLE: iteration 3
DILUPBiCG:  Solving for Ux, Initial residual = 0.00240082, Final residual = 1.0572e-06, No Iterations 2
DILUPBiCG:  Solving for Uy, Initial residual = 0.000395433, Final residual = 9.62648e-06, No Iterations 1
DILUPBiCG:  Solving for Uz, Initial residual = 0.0059889, Final residual = 5.40789e-08, No Iterations 3
GAMG:  Solving for p, Initial residual = 0.0436404, Final residual = 0.000372165, No Iterations 5
GAMG:  Solving for p, Initial residual = 0.0114971, Final residual = 0.000107467, No Iterations 10
GAMG:  Solving for p, Initial residual = 0.00504298, Final residual = 4.31323e-05, No Iterations 12
time step continuity errors : sum local = 5.0421e-07, global = 1.48139e-07, cumulative = -2.08963e-07
GAMG:  Solving for p, Initial residual = 0.00294252, Final residual = 2.6159e-05, No Iterations 18
GAMG:  Solving for p, Initial residual = 0.00176274, Final residual = 1.29474e-05, No Iterations 4
GAMG:  Solving for p, Initial residual = 0.000624266, Final residual = 9.69852e-07, No Iterations 36
time step continuity errors : sum local = 1.12957e-08, global = -3.31426e-09, cumulative = -2.12278e-07
DILUPBiCG:  Solving for omega, Initial residual = 0.000995041, Final residual = 1.13404e-06, No Iterations 1
DILUPBiCG:  Solving for k, Initial residual = 0.00619215, Final residual = 1.33302e-06, No Iterations 2
ExecutionTime = 52.87 s  ClockTime = 53 s

Courant Number mean: 0.250942 max: 0.550605
Time = 0.438

GAMG:  Solving for cellDisplacementx, Initial residual = 0, Final residual = 0, No Iterations 0
GAMG:  Solving for cellDisplacementy, Initial residual = 0, Final residual = 0, No Iterations 0
GAMG:  Solving for cellDisplacementz, Initial residual = 0, Final residual = 0, No Iterations 0
PIMPLE: iteration 1
DILUPBiCG:  Solving for Ux, Initial residual = 0.0348709, Final residual = 0.000113751, No Iterations 1
DILUPBiCG:  Solving for Uy, Initial residual = 0.00547474, Final residual = 1.38887e-05, No Iterations 1
DILUPBiCG:  Solving for Uz, Initial residual = 0.0105857, Final residual = 1.68107e-05, No Iterations 1
GAMG:  Solving for p, Initial residual = 0.105873, Final residual = 0.000985593, No Iterations 4
GAMG:  Solving for p, Initial residual = 0.0138757, Final residual = 0.000127757, No Iterations 18
GAMG:  Solving for p, Initial residual = 0.00629825, Final residual = 5.49982e-05, No Iterations 10
time step continuity errors : sum local = 6.46801e-07, global = -1.70269e-07, cumulative = -3.82546e-07
GAMG:  Solving for p, Initial residual = 0.0467919, Final residual = 0.000370594, No Iterations 4
GAMG:  Solving for p, Initial residual = 0.00678247, Final residual = 6.27828e-05, No Iterations 16
GAMG:  Solving for p, Initial residual = 0.00313546, Final residual = 2.98101e-05, No Iterations 10
time step continuity errors : sum local = 3.50711e-07, global = -9.30184e-08, cumulative = -4.75565e-07
PIMPLE: iteration 2
DILUPBiCG:  Solving for Ux, Initial residual = 0.0098328, Final residual = 3.78078e-05, No Iterations 1
DILUPBiCG:  Solving for Uy, Initial residual = 0.00157739, Final residual = 6.42835e-06, No Iterations 1
DILUPBiCG:  Solving for Uz, Initial residual = 0.00266118, Final residual = 8.24471e-06, No Iterations 1
GAMG:  Solving for p, Initial residual = 0.0460736, Final residual = 0.000315007, No Iterations 6
GAMG:  Solving for p, Initial residual = 0.0101727, Final residual = 9.46843e-05, No Iterations 14
GAMG:  Solving for p, Initial residual = 0.00387104, Final residual = 3.41101e-05, No Iterations 12
time step continuity errors : sum local = 3.40508e-07, global = 9.87849e-08, cumulative = -3.7678e-07
GAMG:  Solving for p, Initial residual = 0.0241821, Final residual = 0.000210423, No Iterations 5
GAMG:  Solving for p, Initial residual = 0.00493635, Final residual = 4.64136e-05, No Iterations 11
GAMG:  Solving for p, Initial residual = 0.00174622, Final residual = 1.55763e-05, No Iterations 14
time step continuity errors : sum local = 1.5662e-07, global = 4.85712e-08, cumulative = -3.28209e-07
PIMPLE: iteration 3
DILUPBiCG:  Solving for Ux, Initial residual = 0.00223077, Final residual = 9.58036e-07, No Iterations 2
DILUPBiCG:  Solving for Uy, Initial residual = 0.000363704, Final residual = 9.19786e-06, No Iterations 1
DILUPBiCG:  Solving for Uz, Initial residual = 0.00567167, Final residual = 7.69567e-08, No Iterations 3
GAMG:  Solving for p, Initial residual = 0.0439819, Final residual = 0.000371853, No Iterations 5
GAMG:  Solving for p, Initial residual = 0.011723, Final residual = 0.000109432, No Iterations 10
GAMG:  Solving for p, Initial residual = 0.00504434, Final residual = 4.40175e-05, No Iterations 12
time step continuity errors : sum local = 4.91043e-07, global = 1.44872e-07, cumulative = -1.83337e-07
GAMG:  Solving for p, Initial residual = 0.00299221, Final residual = 2.62897e-05, No Iterations 18
GAMG:  Solving for p, Initial residual = 0.00181302, Final residual = 1.31966e-05, No Iterations 4
GAMG:  Solving for p, Initial residual = 0.000624947, Final residual = 9.72969e-07, No Iterations 36
time step continuity errors : sum local = 1.08192e-08, global = -3.17499e-09, cumulative = -1.86512e-07
DILUPBiCG:  Solving for omega, Initial residual = 0.00103288, Final residual = 1.19919e-06, No Iterations 1
DILUPBiCG:  Solving for k, Initial residual = 0.00629132, Final residual = 1.3467e-06, No Iterations 2
ExecutionTime = 60.33 s  ClockTime = 60 s

Courant Number mean: 0.255037 max: 0.560247
Time = 0.439

GAMG:  Solving for cellDisplacementx, Initial residual = 0, Final residual = 0, No Iterations 0
GAMG:  Solving for cellDisplacementy, Initial residual = 0, Final residual = 0, No Iterations 0
GAMG:  Solving for cellDisplacementz, Initial residual = 0, Final residual = 0, No Iterations 0
PIMPLE: iteration 1
DILUPBiCG:  Solving for Ux, Initial residual = 0.0324524, Final residual = 0.000106446, No Iterations 1
DILUPBiCG:  Solving for Uy, Initial residual = 0.00505741, Final residual = 1.31149e-05, No Iterations 1
DILUPBiCG:  Solving for Uz, Initial residual = 0.0102395, Final residual = 1.6767e-05, No Iterations 1
GAMG:  Solving for p, Initial residual = 0.104021, Final residual = 0.000955473, No Iterations 4
GAMG:  Solving for p, Initial residual = 0.0137089, Final residual = 0.00012015, No Iterations 18
GAMG:  Solving for p, Initial residual = 0.00618561, Final residual = 5.1591e-05, No Iterations 10
time step continuity errors : sum local = 5.74867e-07, global = -1.4942e-07, cumulative = -3.35932e-07
GAMG:  Solving for p, Initial residual = 0.0462617, Final residual = 0.000359279, No Iterations 4
GAMG:  Solving for p, Initial residual = 0.00671672, Final residual = 5.90227e-05, No Iterations 16
GAMG:  Solving for p, Initial residual = 0.0030884, Final residual = 2.82494e-05, No Iterations 10
time step continuity errors : sum local = 3.14796e-07, global = -8.34995e-08, cumulative = -4.19432e-07
PIMPLE: iteration 2
DILUPBiCG:  Solving for Ux, Initial residual = 0.00911892, Final residual = 3.49766e-05, No Iterations 1
DILUPBiCG:  Solving for Uy, Initial residual = 0.00146357, Final residual = 6.35748e-06, No Iterations 1
DILUPBiCG:  Solving for Uz, Initial residual = 0.0027157, Final residual = 8.35016e-06, No Iterations 1
GAMG:  Solving for p, Initial residual = 0.0454133, Final residual = 0.000328909, No Iterations 6
GAMG:  Solving for p, Initial residual = 0.0102063, Final residual = 9.50642e-05, No Iterations 14
GAMG:  Solving for p, Initial residual = 0.00375076, Final residual = 3.63447e-05, No Iterations 12
time step continuity errors : sum local = 3.44156e-07, global = 9.89981e-08, cumulative = -3.20433e-07
GAMG:  Solving for p, Initial residual = 0.0237089, Final residual = 0.000221819, No Iterations 5
GAMG:  Solving for p, Initial residual = 0.00487532, Final residual = 4.7158e-05, No Iterations 11
GAMG:  Solving for p, Initial residual = 0.00171988, Final residual = 1.602e-05, No Iterations 14
time step continuity errors : sum local = 1.52812e-07, global = 4.6809e-08, cumulative = -2.73624e-07
PIMPLE: iteration 3
DILUPBiCG:  Solving for Ux, Initial residual = 0.00204024, Final residual = 8.58259e-07, No Iterations 2
DILUPBiCG:  Solving for Uy, Initial residual = 0.000335577, Final residual = 9.40971e-06, No Iterations 1
DILUPBiCG:  Solving for Uz, Initial residual = 0.00542525, Final residual = 3.80665e-06, No Iterations 2
GAMG:  Solving for p, Initial residual = 0.0449162, Final residual = 0.000376035, No Iterations 5
GAMG:  Solving for p, Initial residual = 0.0120099, Final residual = 0.000117835, No Iterations 10
GAMG:  Solving for p, Initial residual = 0.00527111, Final residual = 4.78991e-05, No Iterations 12
time step continuity errors : sum local = 5.06092e-07, global = 1.49726e-07, cumulative = -1.23898e-07
GAMG:  Solving for p, Initial residual = 0.00312005, Final residual = 3.00399e-05, No Iterations 16
GAMG:  Solving for p, Initial residual = 0.00185897, Final residual = 1.55075e-05, No Iterations 4
GAMG:  Solving for p, Initial residual = 0.000652588, Final residual = 8.89745e-07, No Iterations 40
time step continuity errors : sum local = 9.36001e-09, global = -2.76851e-09, cumulative = -1.26667e-07
DILUPBiCG:  Solving for omega, Initial residual = 0.00106796, Final residual = 1.26379e-06, No Iterations 1
DILUPBiCG:  Solving for k, Initial residual = 0.00636228, Final residual = 1.33086e-06, No Iterations 2
ExecutionTime = 67.82 s  ClockTime = 68 s

Courant Number mean: 0.258865 max: 0.569306
Time = 0.44

GAMG:  Solving for cellDisplacementx, Initial residual = 0, Final residual = 0, No Iterations 0
GAMG:  Solving for cellDisplacementy, Initial residual = 0, Final residual = 0, No Iterations 0
GAMG:  Solving for cellDisplacementz, Initial residual = 0, Final residual = 0, No Iterations 0
PIMPLE: iteration 1
DILUPBiCG:  Solving for Ux, Initial residual = 0.0299237, Final residual = 9.89777e-05, No Iterations 1
DILUPBiCG:  Solving for Uy, Initial residual = 0.00467107, Final residual = 1.2464e-05, No Iterations 1
DILUPBiCG:  Solving for Uz, Initial residual = 0.00990961, Final residual = 1.75241e-05, No Iterations 1
GAMG:  Solving for p, Initial residual = 0.103438, Final residual = 0.000885084, No Iterations 4
GAMG:  Solving for p, Initial residual = 0.0138462, Final residual = 0.000137907, No Iterations 16
GAMG:  Solving for p, Initial residual = 0.00625708, Final residual = 5.26951e-05, No Iterations 12
time step continuity errors : sum local = 5.52847e-07, global = -1.65444e-07, cumulative = -2.92111e-07
GAMG:  Solving for p, Initial residual = 0.0461229, Final residual = 0.000336494, No Iterations 4
GAMG:  Solving for p, Initial residual = 0.00675332, Final residual = 5.81714e-05, No Iterations 16
GAMG:  Solving for p, Initial residual = 0.00312126, Final residual = 2.77472e-05, No Iterations 10
time step continuity errors : sum local = 2.91623e-07, global = -7.80071e-08, cumulative = -3.70118e-07
PIMPLE: iteration 2
DILUPBiCG:  Solving for Ux, Initial residual = 0.00839817, Final residual = 3.22626e-05, No Iterations 1
DILUPBiCG:  Solving for Uy, Initial residual = 0.0013457, Final residual = 6.26718e-06, No Iterations 1
DILUPBiCG:  Solving for Uz, Initial residual = 0.00276268, Final residual = 8.9084e-06, No Iterations 1
GAMG:  Solving for p, Initial residual = 0.045116, Final residual = 0.00032221, No Iterations 6
GAMG:  Solving for p, Initial residual = 0.0107408, Final residual = 9.64485e-05, No Iterations 14
GAMG:  Solving for p, Initial residual = 0.00393606, Final residual = 3.64895e-05, No Iterations 12
time step continuity errors : sum local = 3.25615e-07, global = 9.44831e-08, cumulative = -2.75635e-07
GAMG:  Solving for p, Initial residual = 0.0237759, Final residual = 0.000213151, No Iterations 5
GAMG:  Solving for p, Initial residual = 0.00520858, Final residual = 4.8426e-05, No Iterations 11
GAMG:  Solving for p, Initial residual = 0.00175165, Final residual = 1.65164e-05, No Iterations 14
time step continuity errors : sum local = 1.48494e-07, global = 4.56794e-08, cumulative = -2.29955e-07
PIMPLE: iteration 3
DILUPBiCG:  Solving for Ux, Initial residual = 0.00186127, Final residual = 7.26678e-07, No Iterations 2
DILUPBiCG:  Solving for Uy, Initial residual = 0.000303631, Final residual = 8.83443e-06, No Iterations 1
DILUPBiCG:  Solving for Uz, Initial residual = 0.00503196, Final residual = 4.61555e-06, No Iterations 2
GAMG:  Solving for p, Initial residual = 0.0454539, Final residual = 0.000376973, No Iterations 5
GAMG:  Solving for p, Initial residual = 0.0123204, Final residual = 0.000121325, No Iterations 10
GAMG:  Solving for p, Initial residual = 0.00529669, Final residual = 4.92686e-05, No Iterations 12
time step continuity errors : sum local = 4.90464e-07, global = 1.45518e-07, cumulative = -8.44369e-08
GAMG:  Solving for p, Initial residual = 0.00318936, Final residual = 3.00531e-05, No Iterations 16
GAMG:  Solving for p, Initial residual = 0.00191657, Final residual = 1.54902e-05, No Iterations 4
GAMG:  Solving for p, Initial residual = 0.000653553, Final residual = 8.78386e-07, No Iterations 40
time step continuity errors : sum local = 8.70913e-09, global = -2.57625e-09, cumulative = -8.70131e-08
DILUPBiCG:  Solving for omega, Initial residual = 0.00109992, Final residual = 1.3251e-06, No Iterations 1
DILUPBiCG:  Solving for k, Initial residual = 0.00640317, Final residual = 1.28752e-06, No Iterations 2
ExecutionTime = 71.86 s  ClockTime = 72 s

End

