/*---------------------------------------------------------------------------*\
| =========                 |                                                 |
| \\      /  F ield         | OpenFOAM: The Open Source CFD Toolbox           |
|  \\    /   O peration     | Version:  2.3.1                                 |
|   \\  /    A nd           | Web:      www.OpenFOAM.org                      |
|    \\/     M anipulation  |                                                 |
\*---------------------------------------------------------------------------*/
Build  : 2.3.1-262087cdf8db
Exec   : pimpleDyMFoam
Date   : Jun 04 2023
Time   : 16:51:47
Host   : "jcosson-VirtualBox"
PID    : 3681
Case   : /home/jcosson/workspace/henersj_shootingdata/calcs/moderate_deformed/primal/10_intervals_04-06-23/sweep2/interval2
nProcs : 1
sigFpe : Enabling floating point exception trapping (FOAM_SIGFPE).
fileModificationChecking : Monitoring run-time modified files using timeStampMaster
allowSystemOperations : Allowing user-supplied system call operations

// * * * * * * * * * * * * * * * * * * * * * * * * * * * * * * * * * * * * * //
Create time

Create mesh for time = 0.41

Selecting dynamicFvMesh dynamicMotionSolverFvMesh
Selecting motion solver: displacementLaplacian
Selecting motion diffusion: quadratic
Selecting motion diffusion: quadratic
Selecting motion diffusion: inverseDistance

PIMPLE: no residual control data found. Calculations will employ 3 corrector loops

Reading field p

Reading field U

Reading/calculating face flux field phi

Selecting incompressible transport model Newtonian
Selecting turbulence model type RASModel
Selecting RAS turbulence model kOmegaSST
kOmegaSSTCoeffs
{
    alphaK1         0.85034;
    alphaK2         1;
    alphaOmega1     0.5;
    alphaOmega2     0.85616;
    gamma1          0.5532;
    gamma2          0.4403;
    beta1           0.075;
    beta2           0.0828;
    betaStar        0.09;
    a1              0.31;
    c1              10;
    Cmu             0.09;
    b1              1;
    F3              false;
}

Reading/calculating face velocity Uf

No finite volume options present

Courant Number mean: 0.113401 max: 0.247652

Starting time loop

Courant Number mean: 0.113401 max: 0.247652
Time = 0.411

GAMG:  Solving for cellDisplacementx, Initial residual = 0, Final residual = 0, No Iterations 0
GAMG:  Solving for cellDisplacementy, Initial residual = 0, Final residual = 0, No Iterations 0
GAMG:  Solving for cellDisplacementz, Initial residual = 0, Final residual = 0, No Iterations 0
PIMPLE: iteration 1
DILUPBiCG:  Solving for Ux, Initial residual = 0.0480798, Final residual = 0.000180161, No Iterations 1
DILUPBiCG:  Solving for Uy, Initial residual = 0.00947314, Final residual = 1.70104e-05, No Iterations 1
DILUPBiCG:  Solving for Uz, Initial residual = 0.0174558, Final residual = 2.99071e-05, No Iterations 1
GAMG:  Solving for p, Initial residual = 0.157763, Final residual = 0.00121927, No Iterations 6
GAMG:  Solving for p, Initial residual = 0.0182739, Final residual = 0.00017113, No Iterations 18
GAMG:  Solving for p, Initial residual = 0.00781188, Final residual = 6.6655e-05, No Iterations 12
time step continuity errors : sum local = 5.91788e-07, global = -1.75292e-07, cumulative = -1.75292e-07
GAMG:  Solving for p, Initial residual = 0.0651941, Final residual = 0.000421641, No Iterations 6
GAMG:  Solving for p, Initial residual = 0.00930107, Final residual = 8.46426e-05, No Iterations 16
GAMG:  Solving for p, Initial residual = 0.00415984, Final residual = 3.41142e-05, No Iterations 12
time step continuity errors : sum local = 3.04166e-07, global = -8.97318e-08, cumulative = -2.65024e-07
PIMPLE: iteration 2
DILUPBiCG:  Solving for Ux, Initial residual = 0.0136096, Final residual = 8.49194e-05, No Iterations 1
DILUPBiCG:  Solving for Uy, Initial residual = 0.00261992, Final residual = 5.73186e-06, No Iterations 1
DILUPBiCG:  Solving for Uz, Initial residual = 0.00393298, Final residual = 1.86416e-05, No Iterations 1
GAMG:  Solving for p, Initial residual = 0.0673545, Final residual = 0.000286074, No Iterations 4
GAMG:  Solving for p, Initial residual = 0.0105647, Final residual = 9.75285e-05, No Iterations 12
GAMG:  Solving for p, Initial residual = 0.00499946, Final residual = 4.78827e-05, No Iterations 7
time step continuity errors : sum local = 3.69928e-07, global = -1.41213e-07, cumulative = -4.06236e-07
GAMG:  Solving for p, Initial residual = 0.0339719, Final residual = 0.000129116, No Iterations 4
GAMG:  Solving for p, Initial residual = 0.0054374, Final residual = 5.28246e-05, No Iterations 10
GAMG:  Solving for p, Initial residual = 0.00253816, Final residual = 2.11835e-05, No Iterations 8
time step continuity errors : sum local = 1.6426e-07, global = 5.53415e-08, cumulative = -3.50895e-07
PIMPLE: iteration 3
DILUPBiCG:  Solving for Ux, Initial residual = 0.00357898, Final residual = 1.57735e-06, No Iterations 2
DILUPBiCG:  Solving for Uy, Initial residual = 0.000683957, Final residual = 5.50394e-06, No Iterations 1
DILUPBiCG:  Solving for Uz, Initial residual = 0.00607956, Final residual = 2.35808e-06, No Iterations 2
GAMG:  Solving for p, Initial residual = 0.0387234, Final residual = 0.000368245, No Iterations 4
GAMG:  Solving for p, Initial residual = 0.00783278, Final residual = 7.04641e-05, No Iterations 18
GAMG:  Solving for p, Initial residual = 0.00388013, Final residual = 3.34415e-05, No Iterations 8
time step continuity errors : sum local = 2.91454e-07, global = 6.11812e-08, cumulative = -2.89714e-07
GAMG:  Solving for p, Initial residual = 0.00203497, Final residual = 1.51827e-05, No Iterations 8
GAMG:  Solving for p, Initial residual = 0.0010709, Final residual = 1.03437e-05, No Iterations 4
GAMG:  Solving for p, Initial residual = 0.000459105, Final residual = 9.29158e-07, No Iterations 23
time step continuity errors : sum local = 8.03144e-09, global = -2.39184e-09, cumulative = -2.92105e-07
DILUPBiCG:  Solving for omega, Initial residual = 0.00114049, Final residual = 7.95323e-07, No Iterations 1
DILUPBiCG:  Solving for k, Initial residual = 0.00351378, Final residual = 1.00458e-06, No Iterations 2
ExecutionTime = 11.01 s  ClockTime = 11 s

Courant Number mean: 0.116933 max: 0.25482
Time = 0.412

GAMG:  Solving for cellDisplacementx, Initial residual = 0, Final residual = 0, No Iterations 0
GAMG:  Solving for cellDisplacementy, Initial residual = 0, Final residual = 0, No Iterations 0
GAMG:  Solving for cellDisplacementz, Initial residual = 0, Final residual = 0, No Iterations 0
PIMPLE: iteration 1
DILUPBiCG:  Solving for Ux, Initial residual = 0.0513358, Final residual = 0.000191698, No Iterations 1
DILUPBiCG:  Solving for Uy, Initial residual = 0.00996551, Final residual = 1.79828e-05, No Iterations 1
DILUPBiCG:  Solving for Uz, Initial residual = 0.0165231, Final residual = 2.97224e-05, No Iterations 1
GAMG:  Solving for p, Initial residual = 0.13505, Final residual = 0.00120795, No Iterations 6
GAMG:  Solving for p, Initial residual = 0.0137575, Final residual = 0.00011993, No Iterations 22
GAMG:  Solving for p, Initial residual = 0.00611, Final residual = 6.03671e-05, No Iterations 4
time step continuity errors : sum local = 5.83869e-07, global = -2.03e-07, cumulative = -4.95105e-07
GAMG:  Solving for p, Initial residual = 0.0555046, Final residual = 0.000421399, No Iterations 6
GAMG:  Solving for p, Initial residual = 0.0070109, Final residual = 6.04525e-05, No Iterations 20
GAMG:  Solving for p, Initial residual = 0.00323016, Final residual = 3.20347e-05, No Iterations 4
time step continuity errors : sum local = 3.10877e-07, global = -1.054e-07, cumulative = -6.00506e-07
PIMPLE: iteration 2
DILUPBiCG:  Solving for Ux, Initial residual = 0.014475, Final residual = 8.93354e-05, No Iterations 1
DILUPBiCG:  Solving for Uy, Initial residual = 0.00275003, Final residual = 5.99822e-06, No Iterations 1
DILUPBiCG:  Solving for Uz, Initial residual = 0.00380172, Final residual = 1.84237e-05, No Iterations 1
GAMG:  Solving for p, Initial residual = 0.057323, Final residual = 0.000305484, No Iterations 4
GAMG:  Solving for p, Initial residual = 0.0079675, Final residual = 7.02829e-05, No Iterations 16
GAMG:  Solving for p, Initial residual = 0.00401593, Final residual = 3.88083e-05, No Iterations 5
time step continuity errors : sum local = 3.25219e-07, global = -1.18663e-07, cumulative = -7.19168e-07
GAMG:  Solving for p, Initial residual = 0.0288915, Final residual = 0.000136015, No Iterations 4
GAMG:  Solving for p, Initial residual = 0.00409163, Final residual = 3.67499e-05, No Iterations 14
GAMG:  Solving for p, Initial residual = 0.00199237, Final residual = 1.69497e-05, No Iterations 7
time step continuity errors : sum local = 1.42674e-07, global = -4.65001e-08, cumulative = -7.65668e-07
PIMPLE: iteration 3
DILUPBiCG:  Solving for Ux, Initial residual = 0.00378031, Final residual = 1.61966e-06, No Iterations 2
DILUPBiCG:  Solving for Uy, Initial residual = 0.00071045, Final residual = 5.66528e-06, No Iterations 1
DILUPBiCG:  Solving for Uz, Initial residual = 0.0067179, Final residual = 2.50914e-06, No Iterations 2
GAMG:  Solving for p, Initial residual = 0.0365788, Final residual = 0.000353609, No Iterations 5
GAMG:  Solving for p, Initial residual = 0.00746071, Final residual = 6.73093e-05, No Iterations 17
GAMG:  Solving for p, Initial residual = 0.00366863, Final residual = 3.41823e-05, No Iterations 8
time step continuity errors : sum local = 3.23394e-07, global = 6.90318e-08, cumulative = -6.96637e-07
GAMG:  Solving for p, Initial residual = 0.00192323, Final residual = 1.68937e-05, No Iterations 8
GAMG:  Solving for p, Initial residual = 0.00103024, Final residual = 9.24885e-06, No Iterations 5
GAMG:  Solving for p, Initial residual = 0.000439465, Final residual = 9.39531e-07, No Iterations 26
time step continuity errors : sum local = 8.82086e-09, global = -2.62679e-09, cumulative = -6.99263e-07
DILUPBiCG:  Solving for omega, Initial residual = 0.0011055, Final residual = 7.91273e-07, No Iterations 1
DILUPBiCG:  Solving for k, Initial residual = 0.0035467, Final residual = 1.04111e-06, No Iterations 2
ExecutionTime = 19.21 s  ClockTime = 20 s

Courant Number mean: 0.120749 max: 0.262575
Time = 0.413

GAMG:  Solving for cellDisplacementx, Initial residual = 0, Final residual = 0, No Iterations 0
GAMG:  Solving for cellDisplacementy, Initial residual = 0, Final residual = 0, No Iterations 0
GAMG:  Solving for cellDisplacementz, Initial residual = 0, Final residual = 0, No Iterations 0
PIMPLE: iteration 1
DILUPBiCG:  Solving for Ux, Initial residual = 0.0542885, Final residual = 0.000201762, No Iterations 1
DILUPBiCG:  Solving for Uy, Initial residual = 0.0103952, Final residual = 1.87793e-05, No Iterations 1
DILUPBiCG:  Solving for Uz, Initial residual = 0.015831, Final residual = 2.79311e-05, No Iterations 1
GAMG:  Solving for p, Initial residual = 0.132522, Final residual = 0.00113954, No Iterations 6
GAMG:  Solving for p, Initial residual = 0.0135385, Final residual = 0.000114808, No Iterations 22
GAMG:  Solving for p, Initial residual = 0.00603077, Final residual = 5.87006e-05, No Iterations 4
time step continuity errors : sum local = 6.10218e-07, global = -2.2702e-07, cumulative = -9.26284e-07
GAMG:  Solving for p, Initial residual = 0.0548853, Final residual = 0.000398365, No Iterations 6
GAMG:  Solving for p, Initial residual = 0.0069046, Final residual = 6.8046e-05, No Iterations 18
GAMG:  Solving for p, Initial residual = 0.0031744, Final residual = 2.60374e-05, No Iterations 12
time step continuity errors : sum local = 2.71243e-07, global = -7.96221e-08, cumulative = -1.00591e-06
PIMPLE: iteration 2
DILUPBiCG:  Solving for Ux, Initial residual = 0.0152592, Final residual = 9.28353e-05, No Iterations 1
DILUPBiCG:  Solving for Uy, Initial residual = 0.00286345, Final residual = 6.27269e-06, No Iterations 1
DILUPBiCG:  Solving for Uz, Initial residual = 0.00398148, Final residual = 1.92036e-05, No Iterations 1
GAMG:  Solving for p, Initial residual = 0.0565148, Final residual = 0.000328755, No Iterations 4
GAMG:  Solving for p, Initial residual = 0.00778983, Final residual = 7.02719e-05, No Iterations 16
GAMG:  Solving for p, Initial residual = 0.00386118, Final residual = 3.31383e-05, No Iterations 7
time step continuity errors : sum local = 2.97844e-07, global = -1.01662e-07, cumulative = -1.10757e-06
GAMG:  Solving for p, Initial residual = 0.0285564, Final residual = 0.000146336, No Iterations 4
GAMG:  Solving for p, Initial residual = 0.00399148, Final residual = 3.56192e-05, No Iterations 14
GAMG:  Solving for p, Initial residual = 0.00191157, Final residual = 1.79822e-05, No Iterations 7
time step continuity errors : sum local = 1.62327e-07, global = -6.08222e-08, cumulative = -1.16839e-06
PIMPLE: iteration 3
DILUPBiCG:  Solving for Ux, Initial residual = 0.00391858, Final residual = 1.6461e-06, No Iterations 2
DILUPBiCG:  Solving for Uy, Initial residual = 0.000732096, Final residual = 5.93427e-06, No Iterations 1
DILUPBiCG:  Solving for Uz, Initial residual = 0.00677345, Final residual = 2.63999e-06, No Iterations 2
GAMG:  Solving for p, Initial residual = 0.0368507, Final residual = 0.000359614, No Iterations 5
GAMG:  Solving for p, Initial residual = 0.00760837, Final residual = 6.8136e-05, No Iterations 17
GAMG:  Solving for p, Initial residual = 0.00374742, Final residual = 3.44196e-05, No Iterations 8
time step continuity errors : sum local = 3.49223e-07, global = 7.45608e-08, cumulative = -1.09383e-06
GAMG:  Solving for p, Initial residual = 0.00195226, Final residual = 1.63112e-05, No Iterations 8
GAMG:  Solving for p, Initial residual = 0.00104872, Final residual = 8.94671e-06, No Iterations 5
GAMG:  Solving for p, Initial residual = 0.000442646, Final residual = 9.36138e-07, No Iterations 26
time step continuity errors : sum local = 9.42577e-09, global = -2.80682e-09, cumulative = -1.09664e-06
DILUPBiCG:  Solving for omega, Initial residual = 0.00106648, Final residual = 7.86611e-07, No Iterations 1
DILUPBiCG:  Solving for k, Initial residual = 0.00359167, Final residual = 1.08059e-06, No Iterations 2
ExecutionTime = 27.08 s  ClockTime = 27 s

Courant Number mean: 0.12483 max: 0.270884
Time = 0.414

GAMG:  Solving for cellDisplacementx, Initial residual = 0, Final residual = 0, No Iterations 0
GAMG:  Solving for cellDisplacementy, Initial residual = 0, Final residual = 0, No Iterations 0
GAMG:  Solving for cellDisplacementz, Initial residual = 0, Final residual = 0, No Iterations 0
PIMPLE: iteration 1
DILUPBiCG:  Solving for Ux, Initial residual = 0.0566838, Final residual = 0.000209834, No Iterations 1
DILUPBiCG:  Solving for Uy, Initial residual = 0.0107356, Final residual = 1.95563e-05, No Iterations 1
DILUPBiCG:  Solving for Uz, Initial residual = 0.0169169, Final residual = 2.90689e-05, No Iterations 1
GAMG:  Solving for p, Initial residual = 0.131153, Final residual = 0.00112508, No Iterations 6
GAMG:  Solving for p, Initial residual = 0.0135906, Final residual = 0.000134961, No Iterations 20
GAMG:  Solving for p, Initial residual = 0.00607212, Final residual = 5.80314e-05, No Iterations 10
time step continuity errors : sum local = 6.43426e-07, global = -1.67304e-07, cumulative = -1.26394e-06
GAMG:  Solving for p, Initial residual = 0.0543861, Final residual = 0.000390401, No Iterations 6
GAMG:  Solving for p, Initial residual = 0.00689718, Final residual = 6.75838e-05, No Iterations 18
GAMG:  Solving for p, Initial residual = 0.00318807, Final residual = 2.97869e-05, No Iterations 10
time step continuity errors : sum local = 3.31377e-07, global = -8.60827e-08, cumulative = -1.35002e-06
PIMPLE: iteration 2
DILUPBiCG:  Solving for Ux, Initial residual = 0.0159037, Final residual = 9.54015e-05, No Iterations 1
DILUPBiCG:  Solving for Uy, Initial residual = 0.00294618, Final residual = 6.47114e-06, No Iterations 1
DILUPBiCG:  Solving for Uz, Initial residual = 0.00388862, Final residual = 1.87441e-05, No Iterations 1
GAMG:  Solving for p, Initial residual = 0.0559643, Final residual = 0.000345599, No Iterations 4
GAMG:  Solving for p, Initial residual = 0.00788914, Final residual = 7.24601e-05, No Iterations 16
GAMG:  Solving for p, Initial residual = 0.00391651, Final residual = 3.29499e-05, No Iterations 7
time step continuity errors : sum local = 3.16075e-07, global = -9.97637e-08, cumulative = -1.44979e-06
GAMG:  Solving for p, Initial residual = 0.0283356, Final residual = 0.000153662, No Iterations 4
GAMG:  Solving for p, Initial residual = 0.00405359, Final residual = 3.67352e-05, No Iterations 14
GAMG:  Solving for p, Initial residual = 0.00192499, Final residual = 1.7609e-05, No Iterations 7
time step continuity errors : sum local = 1.69672e-07, global = -6.03491e-08, cumulative = -1.51014e-06
PIMPLE: iteration 3
DILUPBiCG:  Solving for Ux, Initial residual = 0.00406544, Final residual = 1.66866e-06, No Iterations 2
DILUPBiCG:  Solving for Uy, Initial residual = 0.000748372, Final residual = 6.0706e-06, No Iterations 1
DILUPBiCG:  Solving for Uz, Initial residual = 0.00748318, Final residual = 2.71738e-06, No Iterations 2
GAMG:  Solving for p, Initial residual = 0.0370297, Final residual = 0.000338782, No Iterations 5
GAMG:  Solving for p, Initial residual = 0.00767609, Final residual = 6.83198e-05, No Iterations 17
GAMG:  Solving for p, Initial residual = 0.00376944, Final residual = 3.45696e-05, No Iterations 8
time step continuity errors : sum local = 3.74286e-07, global = 8.08843e-08, cumulative = -1.42925e-06
GAMG:  Solving for p, Initial residual = 0.00197093, Final residual = 1.65869e-05, No Iterations 8
GAMG:  Solving for p, Initial residual = 0.00106604, Final residual = 9.14676e-06, No Iterations 5
GAMG:  Solving for p, Initial residual = 0.000447947, Final residual = 9.68762e-07, No Iterations 26
time step continuity errors : sum local = 1.04124e-08, global = -3.09583e-09, cumulative = -1.43235e-06
DILUPBiCG:  Solving for omega, Initial residual = 0.00102339, Final residual = 7.80534e-07, No Iterations 1
DILUPBiCG:  Solving for k, Initial residual = 0.00364645, Final residual = 1.11933e-06, No Iterations 2
ExecutionTime = 35.11 s  ClockTime = 35 s

Courant Number mean: 0.129163 max: 0.279715
Time = 0.415

GAMG:  Solving for cellDisplacementx, Initial residual = 0, Final residual = 0, No Iterations 0
GAMG:  Solving for cellDisplacementy, Initial residual = 0, Final residual = 0, No Iterations 0
GAMG:  Solving for cellDisplacementz, Initial residual = 0, Final residual = 0, No Iterations 0
PIMPLE: iteration 1
DILUPBiCG:  Solving for Ux, Initial residual = 0.0588346, Final residual = 0.000216174, No Iterations 1
DILUPBiCG:  Solving for Uy, Initial residual = 0.0109872, Final residual = 2.00743e-05, No Iterations 1
DILUPBiCG:  Solving for Uz, Initial residual = 0.0164619, Final residual = 2.74135e-05, No Iterations 1
GAMG:  Solving for p, Initial residual = 0.129054, Final residual = 0.00106332, No Iterations 6
GAMG:  Solving for p, Initial residual = 0.0134317, Final residual = 0.000128956, No Iterations 20
GAMG:  Solving for p, Initial residual = 0.00600791, Final residual = 5.71256e-05, No Iterations 10
time step continuity errors : sum local = 6.69881e-07, global = -1.72555e-07, cumulative = -1.6049e-06
GAMG:  Solving for p, Initial residual = 0.0538805, Final residual = 0.000368904, No Iterations 6
GAMG:  Solving for p, Initial residual = 0.00681876, Final residual = 6.42071e-05, No Iterations 18
GAMG:  Solving for p, Initial residual = 0.00314423, Final residual = 2.92706e-05, No Iterations 10
time step continuity errors : sum local = 3.44109e-07, global = -8.88459e-08, cumulative = -1.69375e-06
PIMPLE: iteration 2
DILUPBiCG:  Solving for Ux, Initial residual = 0.0164446, Final residual = 9.69809e-05, No Iterations 1
DILUPBiCG:  Solving for Uy, Initial residual = 0.00301162, Final residual = 6.67059e-06, No Iterations 1
DILUPBiCG:  Solving for Uz, Initial residual = 0.00401149, Final residual = 1.89664e-05, No Iterations 1
GAMG:  Solving for p, Initial residual = 0.0553234, Final residual = 0.000357758, No Iterations 4
GAMG:  Solving for p, Initial residual = 0.00773693, Final residual = 7.17921e-05, No Iterations 16
GAMG:  Solving for p, Initial residual = 0.00378788, Final residual = 3.58868e-05, No Iterations 7
time step continuity errors : sum local = 3.63369e-07, global = -1.35552e-07, cumulative = -1.8293e-06
GAMG:  Solving for p, Initial residual = 0.0280441, Final residual = 0.000159313, No Iterations 4
GAMG:  Solving for p, Initial residual = 0.0039526, Final residual = 3.58944e-05, No Iterations 14
GAMG:  Solving for p, Initial residual = 0.00186145, Final residual = 1.64063e-05, No Iterations 8
time step continuity errors : sum local = 1.66836e-07, global = 5.43703e-08, cumulative = -1.77493e-06
PIMPLE: iteration 3
DILUPBiCG:  Solving for Ux, Initial residual = 0.00415611, Final residual = 1.67591e-06, No Iterations 2
DILUPBiCG:  Solving for Uy, Initial residual = 0.000762126, Final residual = 6.36914e-06, No Iterations 1
DILUPBiCG:  Solving for Uz, Initial residual = 0.00731168, Final residual = 2.84364e-06, No Iterations 2
GAMG:  Solving for p, Initial residual = 0.0373624, Final residual = 0.000340523, No Iterations 5
GAMG:  Solving for p, Initial residual = 0.00784657, Final residual = 6.78694e-05, No Iterations 17
GAMG:  Solving for p, Initial residual = 0.00386612, Final residual = 3.3812e-05, No Iterations 8
time step continuity errors : sum local = 3.86186e-07, global = 8.18653e-08, cumulative = -1.69306e-06
GAMG:  Solving for p, Initial residual = 0.00200423, Final residual = 1.96456e-05, No Iterations 6
GAMG:  Solving for p, Initial residual = 0.00107426, Final residual = 1.06299e-05, No Iterations 4
GAMG:  Solving for p, Initial residual = 0.0004517, Final residual = 9.9739e-07, No Iterations 28
time step continuity errors : sum local = 1.13009e-08, global = -3.33495e-09, cumulative = -1.6964e-06
DILUPBiCG:  Solving for omega, Initial residual = 0.00097649, Final residual = 7.7171e-07, No Iterations 1
DILUPBiCG:  Solving for k, Initial residual = 0.00370918, Final residual = 1.15519e-06, No Iterations 2
ExecutionTime = 43.83 s  ClockTime = 44 s

Courant Number mean: 0.133728 max: 0.289029
Time = 0.416

GAMG:  Solving for cellDisplacementx, Initial residual = 0, Final residual = 0, No Iterations 0
GAMG:  Solving for cellDisplacementy, Initial residual = 0, Final residual = 0, No Iterations 0
GAMG:  Solving for cellDisplacementz, Initial residual = 0, Final residual = 0, No Iterations 0
PIMPLE: iteration 1
DILUPBiCG:  Solving for Ux, Initial residual = 0.0603963, Final residual = 0.000220528, No Iterations 1
DILUPBiCG:  Solving for Uy, Initial residual = 0.0111717, Final residual = 2.06064e-05, No Iterations 1
DILUPBiCG:  Solving for Uz, Initial residual = 0.0176001, Final residual = 2.81284e-05, No Iterations 1
GAMG:  Solving for p, Initial residual = 0.128283, Final residual = 0.00106235, No Iterations 6
GAMG:  Solving for p, Initial residual = 0.01361, Final residual = 0.000130056, No Iterations 20
GAMG:  Solving for p, Initial residual = 0.00609022, Final residual = 5.26502e-05, No Iterations 10
time step continuity errors : sum local = 6.50053e-07, global = -1.69212e-07, cumulative = -1.86561e-06
GAMG:  Solving for p, Initial residual = 0.0536245, Final residual = 0.000371256, No Iterations 6
GAMG:  Solving for p, Initial residual = 0.00687792, Final residual = 6.52592e-05, No Iterations 18
GAMG:  Solving for p, Initial residual = 0.00318995, Final residual = 2.75691e-05, No Iterations 10
time step continuity errors : sum local = 3.41403e-07, global = -8.8729e-08, cumulative = -1.95434e-06
PIMPLE: iteration 2
DILUPBiCG:  Solving for Ux, Initial residual = 0.0168952, Final residual = 9.76485e-05, No Iterations 1
DILUPBiCG:  Solving for Uy, Initial residual = 0.00305736, Final residual = 6.81142e-06, No Iterations 1
DILUPBiCG:  Solving for Uz, Initial residual = 0.0039172, Final residual = 1.84908e-05, No Iterations 1
GAMG:  Solving for p, Initial residual = 0.0549518, Final residual = 0.000373887, No Iterations 4
GAMG:  Solving for p, Initial residual = 0.00791197, Final residual = 7.40779e-05, No Iterations 16
GAMG:  Solving for p, Initial residual = 0.0038761, Final residual = 3.44455e-05, No Iterations 7
time step continuity errors : sum local = 3.67128e-07, global = -1.2378e-07, cumulative = -2.07812e-06
GAMG:  Solving for p, Initial residual = 0.0279204, Final residual = 0.000165898, No Iterations 4
GAMG:  Solving for p, Initial residual = 0.00404839, Final residual = 3.71413e-05, No Iterations 14
GAMG:  Solving for p, Initial residual = 0.00189103, Final residual = 1.858e-05, No Iterations 7
time step continuity errors : sum local = 1.98923e-07, global = -7.53829e-08, cumulative = -2.1535e-06
PIMPLE: iteration 3
DILUPBiCG:  Solving for Ux, Initial residual = 0.00426042, Final residual = 1.67241e-06, No Iterations 2
DILUPBiCG:  Solving for Uy, Initial residual = 0.00076928, Final residual = 6.46208e-06, No Iterations 1
DILUPBiCG:  Solving for Uz, Initial residual = 0.00803355, Final residual = 2.81404e-06, No Iterations 2
GAMG:  Solving for p, Initial residual = 0.0375007, Final residual = 0.00031977, No Iterations 5
GAMG:  Solving for p, Initial residual = 0.00788426, Final residual = 6.80672e-05, No Iterations 17
GAMG:  Solving for p, Initial residual = 0.00386622, Final residual = 3.84281e-05, No Iterations 4
time step continuity errors : sum local = 4.61975e-07, global = 1.52375e-07, cumulative = -2.00113e-06
GAMG:  Solving for p, Initial residual = 0.00201519, Final residual = 1.86137e-05, No Iterations 10
GAMG:  Solving for p, Initial residual = 0.00108172, Final residual = 1.07453e-05, No Iterations 4
GAMG:  Solving for p, Initial residual = 0.000453299, Final residual = 9.74348e-07, No Iterations 24
time step continuity errors : sum local = 1.16278e-08, global = -3.35976e-09, cumulative = -2.00449e-06
DILUPBiCG:  Solving for omega, Initial residual = 0.0009269, Final residual = 7.60664e-07, No Iterations 1
DILUPBiCG:  Solving for k, Initial residual = 0.00377788, Final residual = 1.18778e-06, No Iterations 2
ExecutionTime = 54.89 s  ClockTime = 55 s

Courant Number mean: 0.13851 max: 0.298789
Time = 0.417

GAMG:  Solving for cellDisplacementx, Initial residual = 0, Final residual = 0, No Iterations 0
GAMG:  Solving for cellDisplacementy, Initial residual = 0, Final residual = 0, No Iterations 0
GAMG:  Solving for cellDisplacementz, Initial residual = 0, Final residual = 0, No Iterations 0
PIMPLE: iteration 1
DILUPBiCG:  Solving for Ux, Initial residual = 0.0617707, Final residual = 0.000223139, No Iterations 1
DILUPBiCG:  Solving for Uy, Initial residual = 0.0112604, Final residual = 2.08593e-05, No Iterations 1
DILUPBiCG:  Solving for Uz, Initial residual = 0.0172737, Final residual = 2.62928e-05, No Iterations 1
GAMG:  Solving for p, Initial residual = 0.12638, Final residual = 0.00100338, No Iterations 6
GAMG:  Solving for p, Initial residual = 0.0134438, Final residual = 0.000123711, No Iterations 20
GAMG:  Solving for p, Initial residual = 0.00603585, Final residual = 5.20065e-05, No Iterations 10
time step continuity errors : sum local = 6.70082e-07, global = -1.72793e-07, cumulative = -2.17728e-06
GAMG:  Solving for p, Initial residual = 0.0531574, Final residual = 0.00034982, No Iterations 6
GAMG:  Solving for p, Initial residual = 0.00680288, Final residual = 6.16604e-05, No Iterations 18
GAMG:  Solving for p, Initial residual = 0.00314077, Final residual = 2.72007e-05, No Iterations 10
time step continuity errors : sum local = 3.51153e-07, global = -9.07251e-08, cumulative = -2.26801e-06
PIMPLE: iteration 2
DILUPBiCG:  Solving for Ux, Initial residual = 0.0172261, Final residual = 9.74227e-05, No Iterations 1
DILUPBiCG:  Solving for Uy, Initial residual = 0.00308545, Final residual = 6.94854e-06, No Iterations 1
DILUPBiCG:  Solving for Uz, Initial residual = 0.00401276, Final residual = 1.84306e-05, No Iterations 1
GAMG:  Solving for p, Initial residual = 0.0543658, Final residual = 0.000382637, No Iterations 4
GAMG:  Solving for p, Initial residual = 0.00777509, Final residual = 7.34916e-05, No Iterations 16
GAMG:  Solving for p, Initial residual = 0.00376467, Final residual = 3.39636e-05, No Iterations 8
time step continuity errors : sum local = 3.76978e-07, global = 1.25227e-07, cumulative = -2.14278e-06
GAMG:  Solving for p, Initial residual = 0.0276239, Final residual = 0.000171829, No Iterations 4
GAMG:  Solving for p, Initial residual = 0.00395925, Final residual = 3.62064e-05, No Iterations 14
GAMG:  Solving for p, Initial residual = 0.00183111, Final residual = 1.66098e-05, No Iterations 8
time step continuity errors : sum local = 1.85152e-07, global = 5.51101e-08, cumulative = -2.08767e-06
PIMPLE: iteration 3
DILUPBiCG:  Solving for Ux, Initial residual = 0.00429793, Final residual = 1.65534e-06, No Iterations 2
DILUPBiCG:  Solving for Uy, Initial residual = 0.000776429, Final residual = 6.79468e-06, No Iterations 1
DILUPBiCG:  Solving for Uz, Initial residual = 0.00768885, Final residual = 2.93225e-06, No Iterations 2
GAMG:  Solving for p, Initial residual = 0.0378842, Final residual = 0.000317952, No Iterations 5
GAMG:  Solving for p, Initial residual = 0.00807891, Final residual = 7.87075e-05, No Iterations 15
GAMG:  Solving for p, Initial residual = 0.00397648, Final residual = 3.45377e-05, No Iterations 10
time step continuity errors : sum local = 4.32375e-07, global = 1.11524e-07, cumulative = -1.97615e-06
GAMG:  Solving for p, Initial residual = 0.00206379, Final residual = 1.68302e-05, No Iterations 12
GAMG:  Solving for p, Initial residual = 0.00112029, Final residual = 1.02163e-05, No Iterations 4
GAMG:  Solving for p, Initial residual = 0.000461354, Final residual = 9.5878e-07, No Iterations 26
time step continuity errors : sum local = 1.1908e-08, global = -3.53288e-09, cumulative = -1.97968e-06
DILUPBiCG:  Solving for omega, Initial residual = 0.000875925, Final residual = 7.46145e-07, No Iterations 1
DILUPBiCG:  Solving for k, Initial residual = 0.0038496, Final residual = 1.21646e-06, No Iterations 2
ExecutionTime = 65.67 s  ClockTime = 66 s

Courant Number mean: 0.143485 max: 0.308954
Time = 0.418

GAMG:  Solving for cellDisplacementx, Initial residual = 0, Final residual = 0, No Iterations 0
GAMG:  Solving for cellDisplacementy, Initial residual = 0, Final residual = 0, No Iterations 0
GAMG:  Solving for cellDisplacementz, Initial residual = 0, Final residual = 0, No Iterations 0
PIMPLE: iteration 1
DILUPBiCG:  Solving for Ux, Initial residual = 0.0625668, Final residual = 0.000224306, No Iterations 1
DILUPBiCG:  Solving for Uy, Initial residual = 0.0113192, Final residual = 2.1199e-05, No Iterations 1
DILUPBiCG:  Solving for Uz, Initial residual = 0.0184471, Final residual = 2.72573e-05, No Iterations 1
GAMG:  Solving for p, Initial residual = 0.126024, Final residual = 0.00101316, No Iterations 6
GAMG:  Solving for p, Initial residual = 0.0137248, Final residual = 0.000126578, No Iterations 20
GAMG:  Solving for p, Initial residual = 0.00615652, Final residual = 6.12349e-05, No Iterations 4
time step continuity errors : sum local = 8.21216e-07, global = -2.82538e-07, cumulative = -2.26222e-06
GAMG:  Solving for p, Initial residual = 0.0531097, Final residual = 0.000362576, No Iterations 6
GAMG:  Solving for p, Initial residual = 0.0069303, Final residual = 6.41581e-05, No Iterations 18
GAMG:  Solving for p, Initial residual = 0.0032102, Final residual = 2.58396e-05, No Iterations 10
time step continuity errors : sum local = 3.47499e-07, global = -8.99732e-08, cumulative = -2.35219e-06
PIMPLE: iteration 2
DILUPBiCG:  Solving for Ux, Initial residual = 0.0175047, Final residual = 9.66777e-05, No Iterations 1
DILUPBiCG:  Solving for Uy, Initial residual = 0.00310135, Final residual = 7.04624e-06, No Iterations 1
DILUPBiCG:  Solving for Uz, Initial residual = 0.0039121, Final residual = 1.80936e-05, No Iterations 1
GAMG:  Solving for p, Initial residual = 0.0541175, Final residual = 0.000399033, No Iterations 4
GAMG:  Solving for p, Initial residual = 0.00803028, Final residual = 7.57103e-05, No Iterations 16
GAMG:  Solving for p, Initial residual = 0.00388884, Final residual = 3.5942e-05, No Iterations 7
time step continuity errors : sum local = 4.15189e-07, global = -1.46549e-07, cumulative = -2.49874e-06
GAMG:  Solving for p, Initial residual = 0.0275818, Final residual = 0.000176296, No Iterations 4
GAMG:  Solving for p, Initial residual = 0.00408141, Final residual = 3.77509e-05, No Iterations 14
GAMG:  Solving for p, Initial residual = 0.00187981, Final residual = 1.68235e-05, No Iterations 8
time step continuity errors : sum local = 1.95235e-07, global = 6.49929e-08, cumulative = -2.43375e-06
PIMPLE: iteration 3
DILUPBiCG:  Solving for Ux, Initial residual = 0.00436731, Final residual = 1.63745e-06, No Iterations 2
DILUPBiCG:  Solving for Uy, Initial residual = 0.000775051, Final residual = 6.83577e-06, No Iterations 1
DILUPBiCG:  Solving for Uz, Initial residual = 0.00843322, Final residual = 2.84052e-06, No Iterations 2
GAMG:  Solving for p, Initial residual = 0.0379477, Final residual = 0.000295581, No Iterations 5
GAMG:  Solving for p, Initial residual = 0.00809763, Final residual = 7.51091e-05, No Iterations 15
GAMG:  Solving for p, Initial residual = 0.0039621, Final residual = 3.32849e-05, No Iterations 10
time step continuity errors : sum local = 4.33637e-07, global = 1.11771e-07, cumulative = -2.32197e-06
GAMG:  Solving for p, Initial residual = 0.00207074, Final residual = 1.85318e-05, No Iterations 14
GAMG:  Solving for p, Initial residual = 0.00113768, Final residual = 9.88395e-06, No Iterations 4
GAMG:  Solving for p, Initial residual = 0.000463804, Final residual = 9.30141e-07, No Iterations 22
time step continuity errors : sum local = 1.20316e-08, global = -3.35278e-09, cumulative = -2.32533e-06
DILUPBiCG:  Solving for omega, Initial residual = 0.000824959, Final residual = 7.2959e-07, No Iterations 1
DILUPBiCG:  Solving for k, Initial residual = 0.00392334, Final residual = 1.23964e-06, No Iterations 2
ExecutionTime = 73.42 s  ClockTime = 74 s

Courant Number mean: 0.148639 max: 0.319486
Time = 0.419

GAMG:  Solving for cellDisplacementx, Initial residual = 0, Final residual = 0, No Iterations 0
GAMG:  Solving for cellDisplacementy, Initial residual = 0, Final residual = 0, No Iterations 0
GAMG:  Solving for cellDisplacementz, Initial residual = 0, Final residual = 0, No Iterations 0
PIMPLE: iteration 1
DILUPBiCG:  Solving for Ux, Initial residual = 0.0632817, Final residual = 0.000224228, No Iterations 1
DILUPBiCG:  Solving for Uy, Initial residual = 0.0112774, Final residual = 2.12414e-05, No Iterations 1
DILUPBiCG:  Solving for Uz, Initial residual = 0.0182336, Final residual = 2.5708e-05, No Iterations 1
GAMG:  Solving for p, Initial residual = 0.124131, Final residual = 0.000952506, No Iterations 6
GAMG:  Solving for p, Initial residual = 0.0135344, Final residual = 0.000119556, No Iterations 20
GAMG:  Solving for p, Initial residual = 0.00608422, Final residual = 5.73599e-05, No Iterations 4
time step continuity errors : sum local = 7.93743e-07, global = -2.98346e-07, cumulative = -2.62367e-06
GAMG:  Solving for p, Initial residual = 0.0526281, Final residual = 0.000339161, No Iterations 6
GAMG:  Solving for p, Initial residual = 0.00684515, Final residual = 6.01484e-05, No Iterations 18
GAMG:  Solving for p, Initial residual = 0.00315449, Final residual = 2.57888e-05, No Iterations 10
time step continuity errors : sum local = 3.57418e-07, global = -9.23962e-08, cumulative = -2.71607e-06
PIMPLE: iteration 2
DILUPBiCG:  Solving for Ux, Initial residual = 0.0176481, Final residual = 9.53388e-05, No Iterations 1
DILUPBiCG:  Solving for Uy, Initial residual = 0.00309956, Final residual = 7.14494e-06, No Iterations 1
DILUPBiCG:  Solving for Uz, Initial residual = 0.0039727, Final residual = 1.79739e-05, No Iterations 1
GAMG:  Solving for p, Initial residual = 0.0535469, Final residual = 0.000407432, No Iterations 4
GAMG:  Solving for p, Initial residual = 0.00790712, Final residual = 7.55122e-05, No Iterations 16
GAMG:  Solving for p, Initial residual = 0.0037858, Final residual = 3.49232e-05, No Iterations 8
time step continuity errors : sum local = 4.15346e-07, global = 1.28251e-07, cumulative = -2.58782e-06
GAMG:  Solving for p, Initial residual = 0.0272702, Final residual = 0.000182129, No Iterations 4
GAMG:  Solving for p, Initial residual = 0.00400298, Final residual = 3.71097e-05, No Iterations 14
GAMG:  Solving for p, Initial residual = 0.00182785, Final residual = 1.72693e-05, No Iterations 8
time step continuity errors : sum local = 2.06288e-07, global = 5.61425e-08, cumulative = -2.53168e-06
PIMPLE: iteration 3
DILUPBiCG:  Solving for Ux, Initial residual = 0.00435367, Final residual = 1.6046e-06, No Iterations 2
DILUPBiCG:  Solving for Uy, Initial residual = 0.000776294, Final residual = 7.21489e-06, No Iterations 1
DILUPBiCG:  Solving for Uz, Initial residual = 0.00797936, Final residual = 2.97984e-06, No Iterations 2
GAMG:  Solving for p, Initial residual = 0.0383786, Final residual = 0.000301733, No Iterations 5
GAMG:  Solving for p, Initial residual = 0.00831984, Final residual = 7.49636e-05, No Iterations 15
GAMG:  Solving for p, Initial residual = 0.00408814, Final residual = 3.9254e-05, No Iterations 8
time step continuity errors : sum local = 5.26015e-07, global = 1.17079e-07, cumulative = -2.4146e-06
GAMG:  Solving for p, Initial residual = 0.00212189, Final residual = 1.9232e-05, No Iterations 14
GAMG:  Solving for p, Initial residual = 0.00116064, Final residual = 9.55996e-06, No Iterations 4
GAMG:  Solving for p, Initial residual = 0.000474069, Final residual = 9.47487e-07, No Iterations 22
time step continuity errors : sum local = 1.26036e-08, global = -3.51551e-09, cumulative = -2.41811e-06
DILUPBiCG:  Solving for omega, Initial residual = 0.000775717, Final residual = 7.09794e-07, No Iterations 1
DILUPBiCG:  Solving for k, Initial residual = 0.00399837, Final residual = 1.25216e-06, No Iterations 2
ExecutionTime = 81.64 s  ClockTime = 82 s

Courant Number mean: 0.153946 max: 0.330343
Time = 0.42

GAMG:  Solving for cellDisplacementx, Initial residual = 0, Final residual = 0, No Iterations 0
GAMG:  Solving for cellDisplacementy, Initial residual = 0, Final residual = 0, No Iterations 0
GAMG:  Solving for cellDisplacementz, Initial residual = 0, Final residual = 0, No Iterations 0
PIMPLE: iteration 1
DILUPBiCG:  Solving for Ux, Initial residual = 0.063352, Final residual = 0.000222967, No Iterations 1
DILUPBiCG:  Solving for Uy, Initial residual = 0.0112259, Final residual = 2.14067e-05, No Iterations 1
DILUPBiCG:  Solving for Uz, Initial residual = 0.0191013, Final residual = 2.6059e-05, No Iterations 1
GAMG:  Solving for p, Initial residual = 0.124067, Final residual = 0.000972325, No Iterations 6
GAMG:  Solving for p, Initial residual = 0.0138597, Final residual = 0.000123872, No Iterations 20
GAMG:  Solving for p, Initial residual = 0.00622958, Final residual = 5.89781e-05, No Iterations 4
time step continuity errors : sum local = 8.41064e-07, global = -2.79826e-07, cumulative = -2.69794e-06
GAMG:  Solving for p, Initial residual = 0.0525383, Final residual = 0.000348802, No Iterations 6
GAMG:  Solving for p, Initial residual = 0.00696539, Final residual = 6.27731e-05, No Iterations 18
GAMG:  Solving for p, Initial residual = 0.00322738, Final residual = 3.20646e-05, No Iterations 4
time step continuity errors : sum local = 4.58347e-07, global = -1.54349e-07, cumulative = -2.85229e-06
PIMPLE: iteration 2
DILUPBiCG:  Solving for Ux, Initial residual = 0.0176922, Final residual = 9.35188e-05, No Iterations 1
DILUPBiCG:  Solving for Uy, Initial residual = 0.00307408, Final residual = 7.17856e-06, No Iterations 1
DILUPBiCG:  Solving for Uz, Initial residual = 0.00382117, Final residual = 1.81622e-05, No Iterations 1
GAMG:  Solving for p, Initial residual = 0.0534031, Final residual = 0.00041258, No Iterations 4
GAMG:  Solving for p, Initial residual = 0.00811759, Final residual = 7.65994e-05, No Iterations 16
GAMG:  Solving for p, Initial residual = 0.00389507, Final residual = 3.74265e-05, No Iterations 7
time step continuity errors : sum local = 4.58842e-07, global = -1.69398e-07, cumulative = -3.02169e-06
GAMG:  Solving for p, Initial residual = 0.0272715, Final residual = 0.000181291, No Iterations 4
GAMG:  Solving for p, Initial residual = 0.00409413, Final residual = 3.81063e-05, No Iterations 14
GAMG:  Solving for p, Initial residual = 0.001875, Final residual = 1.6717e-05, No Iterations 8
time step continuity errors : sum local = 2.05902e-07, global = 6.36539e-08, cumulative = -2.95803e-06
PIMPLE: iteration 3
DILUPBiCG:  Solving for Ux, Initial residual = 0.00439553, Final residual = 1.57748e-06, No Iterations 2
DILUPBiCG:  Solving for Uy, Initial residual = 0.000768484, Final residual = 7.21368e-06, No Iterations 1
DILUPBiCG:  Solving for Uz, Initial residual = 0.00858676, Final residual = 2.80167e-06, No Iterations 2
GAMG:  Solving for p, Initial residual = 0.0384184, Final residual = 0.00030894, No Iterations 5
GAMG:  Solving for p, Initial residual = 0.0083659, Final residual = 7.32285e-05, No Iterations 13
GAMG:  Solving for p, Initial residual = 0.00403586, Final residual = 3.92264e-05, No Iterations 8
time step continuity errors : sum local = 5.41786e-07, global = 1.20499e-07, cumulative = -2.83753e-06
GAMG:  Solving for p, Initial residual = 0.00212244, Final residual = 2.0653e-05, No Iterations 15
GAMG:  Solving for p, Initial residual = 0.00117958, Final residual = 1.01382e-05, No Iterations 5
GAMG:  Solving for p, Initial residual = 0.000476168, Final residual = 9.0854e-07, No Iterations 28
time step continuity errors : sum local = 1.24703e-08, global = -3.73281e-09, cumulative = -2.84127e-06
DILUPBiCG:  Solving for omega, Initial residual = 0.000730775, Final residual = 6.92159e-07, No Iterations 1
DILUPBiCG:  Solving for k, Initial residual = 0.00407693, Final residual = 1.25456e-06, No Iterations 2
ExecutionTime = 89.53 s  ClockTime = 90 s

End

