/*---------------------------------------------------------------------------*\
| =========                 |                                                 |
| \\      /  F ield         | OpenFOAM: The Open Source CFD Toolbox           |
|  \\    /   O peration     | Version:  2.3.1                                 |
|   \\  /    A nd           | Web:      www.OpenFOAM.org                      |
|    \\/     M anipulation  |                                                 |
\*---------------------------------------------------------------------------*/
Build  : 2.3.1-262087cdf8db
Exec   : pimpleDyMFoam
Date   : Jun 04 2023
Time   : 16:59:54
Host   : "jcosson-VirtualBox"
PID    : 4972
Case   : /home/jcosson/workspace/henersj_shootingdata/calcs/moderate_deformed/primal/10_intervals_04-06-23/sweep8/interval10
nProcs : 1
sigFpe : Enabling floating point exception trapping (FOAM_SIGFPE).
fileModificationChecking : Monitoring run-time modified files using timeStampMaster
allowSystemOperations : Allowing user-supplied system call operations

// * * * * * * * * * * * * * * * * * * * * * * * * * * * * * * * * * * * * * //
Create time

Create mesh for time = 0.49

Selecting dynamicFvMesh dynamicMotionSolverFvMesh
Selecting motion solver: displacementLaplacian
Selecting motion diffusion: quadratic
Selecting motion diffusion: quadratic
Selecting motion diffusion: inverseDistance

PIMPLE: no residual control data found. Calculations will employ 3 corrector loops

Reading field p

Reading field U

Reading/calculating face flux field phi

Selecting incompressible transport model Newtonian
Selecting turbulence model type RASModel
Selecting RAS turbulence model kOmegaSST
bounding k, min: 0 max: 0.000588795 average: 0.000148864
kOmegaSSTCoeffs
{
    alphaK1         0.85034;
    alphaK2         1;
    alphaOmega1     0.5;
    alphaOmega2     0.85616;
    gamma1          0.5532;
    gamma2          0.4403;
    beta1           0.075;
    beta2           0.0828;
    betaStar        0.09;
    a1              0.31;
    c1              10;
    Cmu             0.09;
    b1              1;
    F3              false;
}

Reading/calculating face velocity Uf

No finite volume options present

Courant Number mean: 0.115698 max: 0.249759

Starting time loop

Courant Number mean: 0.115698 max: 0.249759
Time = 0.491

GAMG:  Solving for cellDisplacementx, Initial residual = 0, Final residual = 0, No Iterations 0
GAMG:  Solving for cellDisplacementy, Initial residual = 0, Final residual = 0, No Iterations 0
GAMG:  Solving for cellDisplacementz, Initial residual = 0, Final residual = 0, No Iterations 0
PIMPLE: iteration 1
DILUPBiCG:  Solving for Ux, Initial residual = 0.0518087, Final residual = 0.000202119, No Iterations 1
DILUPBiCG:  Solving for Uy, Initial residual = 0.0104787, Final residual = 2.15249e-05, No Iterations 1
DILUPBiCG:  Solving for Uz, Initial residual = 0.0124796, Final residual = 1.19015e-05, No Iterations 1
GAMG:  Solving for p, Initial residual = 0.112296, Final residual = 0.000683875, No Iterations 4
GAMG:  Solving for p, Initial residual = 0.0153438, Final residual = 0.000144335, No Iterations 16
GAMG:  Solving for p, Initial residual = 0.00746891, Final residual = 6.08936e-05, No Iterations 4
time step continuity errors : sum local = 6.23232e-07, global = 2.08981e-07, cumulative = 2.08981e-07
GAMG:  Solving for p, Initial residual = 0.0511286, Final residual = 0.000294976, No Iterations 4
GAMG:  Solving for p, Initial residual = 0.00756186, Final residual = 7.53517e-05, No Iterations 14
GAMG:  Solving for p, Initial residual = 0.00373731, Final residual = 3.32683e-05, No Iterations 4
time step continuity errors : sum local = 3.42891e-07, global = 1.23744e-07, cumulative = 3.32725e-07
PIMPLE: iteration 2
DILUPBiCG:  Solving for Ux, Initial residual = 0.0132312, Final residual = 8.14341e-05, No Iterations 1
DILUPBiCG:  Solving for Uy, Initial residual = 0.00276317, Final residual = 5.63521e-06, No Iterations 1
DILUPBiCG:  Solving for Uz, Initial residual = 0.00273915, Final residual = 8.35942e-06, No Iterations 1
GAMG:  Solving for p, Initial residual = 0.0498362, Final residual = 0.000495762, No Iterations 5
GAMG:  Solving for p, Initial residual = 0.0108513, Final residual = 9.471e-05, No Iterations 11
GAMG:  Solving for p, Initial residual = 0.00416869, Final residual = 3.49382e-05, No Iterations 12
time step continuity errors : sum local = 3.14476e-07, global = -9.2301e-08, cumulative = 2.40424e-07
GAMG:  Solving for p, Initial residual = 0.0262189, Final residual = 0.000233452, No Iterations 4
GAMG:  Solving for p, Initial residual = 0.00551367, Final residual = 4.73342e-05, No Iterations 14
GAMG:  Solving for p, Initial residual = 0.00211447, Final residual = 1.82656e-05, No Iterations 10
time step continuity errors : sum local = 1.64805e-07, global = -4.1621e-08, cumulative = 1.98803e-07
PIMPLE: iteration 3
DILUPBiCG:  Solving for Ux, Initial residual = 0.00273821, Final residual = 2.87372e-06, No Iterations 2
DILUPBiCG:  Solving for Uy, Initial residual = 0.000608925, Final residual = 5.09064e-06, No Iterations 1
DILUPBiCG:  Solving for Uz, Initial residual = 0.00433495, Final residual = 2.07486e-06, No Iterations 2
GAMG:  Solving for p, Initial residual = 0.0471963, Final residual = 0.000339842, No Iterations 5
GAMG:  Solving for p, Initial residual = 0.0105824, Final residual = 9.90359e-05, No Iterations 14
GAMG:  Solving for p, Initial residual = 0.0054524, Final residual = 5.22506e-05, No Iterations 10
time step continuity errors : sum local = 5.2534e-07, global = -1.38384e-07, cumulative = 6.04193e-08
GAMG:  Solving for p, Initial residual = 0.00257264, Final residual = 2.55311e-05, No Iterations 7
GAMG:  Solving for p, Initial residual = 0.00138074, Final residual = 1.07431e-05, No Iterations 6
GAMG:  Solving for p, Initial residual = 0.000562803, Final residual = 9.85253e-07, No Iterations 28
time step continuity errors : sum local = 9.78384e-09, global = 2.97817e-09, cumulative = 6.33975e-08
DILUPBiCG:  Solving for omega, Initial residual = 0.00119135, Final residual = 7.05061e-07, No Iterations 1
DILUPBiCG:  Solving for k, Initial residual = 0.0033376, Final residual = 6.55338e-07, No Iterations 2
bounding k, min: 0 max: 0.000573818 average: 0.000148072
ExecutionTime = 4.26 s  ClockTime = 4 s

Courant Number mean: 0.112505 max: 0.242715
Time = 0.492

GAMG:  Solving for cellDisplacementx, Initial residual = 0, Final residual = 0, No Iterations 0
GAMG:  Solving for cellDisplacementy, Initial residual = 0, Final residual = 0, No Iterations 0
GAMG:  Solving for cellDisplacementz, Initial residual = 0, Final residual = 0, No Iterations 0
PIMPLE: iteration 1
DILUPBiCG:  Solving for Ux, Initial residual = 0.0484341, Final residual = 0.000188806, No Iterations 1
DILUPBiCG:  Solving for Uy, Initial residual = 0.00991982, Final residual = 2.02938e-05, No Iterations 1
DILUPBiCG:  Solving for Uz, Initial residual = 0.0113356, Final residual = 1.02231e-05, No Iterations 1
GAMG:  Solving for p, Initial residual = 0.103592, Final residual = 0.000599144, No Iterations 4
GAMG:  Solving for p, Initial residual = 0.0130138, Final residual = 0.000114119, No Iterations 18
GAMG:  Solving for p, Initial residual = 0.00656531, Final residual = 5.58204e-05, No Iterations 4
time step continuity errors : sum local = 5.29896e-07, global = 1.9467e-07, cumulative = 2.58068e-07
GAMG:  Solving for p, Initial residual = 0.0473327, Final residual = 0.000259267, No Iterations 4
GAMG:  Solving for p, Initial residual = 0.00640729, Final residual = 5.78971e-05, No Iterations 16
GAMG:  Solving for p, Initial residual = 0.00328595, Final residual = 2.86e-05, No Iterations 4
time step continuity errors : sum local = 2.72944e-07, global = 9.65608e-08, cumulative = 3.54629e-07
PIMPLE: iteration 2
DILUPBiCG:  Solving for Ux, Initial residual = 0.0122595, Final residual = 7.56108e-05, No Iterations 1
DILUPBiCG:  Solving for Uy, Initial residual = 0.00258558, Final residual = 5.25743e-06, No Iterations 1
DILUPBiCG:  Solving for Uz, Initial residual = 0.00267746, Final residual = 1.32895e-05, No Iterations 1
GAMG:  Solving for p, Initial residual = 0.0452424, Final residual = 0.000315044, No Iterations 6
GAMG:  Solving for p, Initial residual = 0.0104048, Final residual = 9.02378e-05, No Iterations 14
GAMG:  Solving for p, Initial residual = 0.00411057, Final residual = 3.46541e-05, No Iterations 10
time step continuity errors : sum local = 2.87798e-07, global = -7.45296e-08, cumulative = 2.80099e-07
GAMG:  Solving for p, Initial residual = 0.0240121, Final residual = 0.00022578, No Iterations 5
GAMG:  Solving for p, Initial residual = 0.00570593, Final residual = 5.54021e-05, No Iterations 6
GAMG:  Solving for p, Initial residual = 0.00197676, Final residual = 1.16543e-05, No Iterations 5
time step continuity errors : sum local = 9.69558e-08, global = -2.32893e-08, cumulative = 2.5681e-07
PIMPLE: iteration 3
DILUPBiCG:  Solving for Ux, Initial residual = 0.00245735, Final residual = 3.02938e-06, No Iterations 2
DILUPBiCG:  Solving for Uy, Initial residual = 0.000551261, Final residual = 5.47248e-06, No Iterations 1
DILUPBiCG:  Solving for Uz, Initial residual = 0.00414572, Final residual = 2.89228e-06, No Iterations 2
GAMG:  Solving for p, Initial residual = 0.0472613, Final residual = 0.000349344, No Iterations 5
GAMG:  Solving for p, Initial residual = 0.010566, Final residual = 0.000102886, No Iterations 14
GAMG:  Solving for p, Initial residual = 0.00574012, Final residual = 5.38753e-05, No Iterations 10
time step continuity errors : sum local = 5.00118e-07, global = -1.34693e-07, cumulative = 1.22116e-07
GAMG:  Solving for p, Initial residual = 0.00260142, Final residual = 2.08958e-05, No Iterations 8
GAMG:  Solving for p, Initial residual = 0.00131974, Final residual = 1.31511e-05, No Iterations 4
GAMG:  Solving for p, Initial residual = 0.00052314, Final residual = 8.58408e-07, No Iterations 23
time step continuity errors : sum local = 7.86482e-09, global = 2.4294e-09, cumulative = 1.24546e-07
DILUPBiCG:  Solving for omega, Initial residual = 0.00121532, Final residual = 6.98165e-07, No Iterations 1
DILUPBiCG:  Solving for k, Initial residual = 0.0032877, Final residual = 6.45853e-07, No Iterations 2
bounding k, min: 0 max: 0.000558295 average: 0.000147307
ExecutionTime = 7.55 s  ClockTime = 8 s

Courant Number mean: 0.109612 max: 0.236314
Time = 0.493

GAMG:  Solving for cellDisplacementx, Initial residual = 0, Final residual = 0, No Iterations 0
GAMG:  Solving for cellDisplacementy, Initial residual = 0, Final residual = 0, No Iterations 0
GAMG:  Solving for cellDisplacementz, Initial residual = 0, Final residual = 0, No Iterations 0
PIMPLE: iteration 1
DILUPBiCG:  Solving for Ux, Initial residual = 0.0445404, Final residual = 0.00017415, No Iterations 1
DILUPBiCG:  Solving for Uy, Initial residual = 0.00922205, Final residual = 1.8786e-05, No Iterations 1
DILUPBiCG:  Solving for Uz, Initial residual = 0.0110716, Final residual = 1.17249e-05, No Iterations 1
GAMG:  Solving for p, Initial residual = 0.101468, Final residual = 0.000545692, No Iterations 4
GAMG:  Solving for p, Initial residual = 0.0128575, Final residual = 0.000113557, No Iterations 18
GAMG:  Solving for p, Initial residual = 0.0069242, Final residual = 5.68078e-05, No Iterations 4
time step continuity errors : sum local = 4.92329e-07, global = 1.67171e-07, cumulative = 2.91717e-07
GAMG:  Solving for p, Initial residual = 0.0468513, Final residual = 0.000231113, No Iterations 4
GAMG:  Solving for p, Initial residual = 0.0062774, Final residual = 5.96946e-05, No Iterations 16
GAMG:  Solving for p, Initial residual = 0.00345035, Final residual = 2.70581e-05, No Iterations 4
time step continuity errors : sum local = 2.36066e-07, global = 7.85691e-08, cumulative = 3.70286e-07
PIMPLE: iteration 2
DILUPBiCG:  Solving for Ux, Initial residual = 0.0111672, Final residual = 6.91533e-05, No Iterations 1
DILUPBiCG:  Solving for Uy, Initial residual = 0.00237896, Final residual = 4.82508e-06, No Iterations 1
DILUPBiCG:  Solving for Uz, Initial residual = 0.00272224, Final residual = 2.43374e-05, No Iterations 1
GAMG:  Solving for p, Initial residual = 0.0444928, Final residual = 0.000313125, No Iterations 6
GAMG:  Solving for p, Initial residual = 0.010649, Final residual = 9.83276e-05, No Iterations 14
GAMG:  Solving for p, Initial residual = 0.00366898, Final residual = 3.31104e-05, No Iterations 12
time step continuity errors : sum local = 2.52123e-07, global = -7.40027e-08, cumulative = 2.96284e-07
GAMG:  Solving for p, Initial residual = 0.0236086, Final residual = 0.000230103, No Iterations 5
GAMG:  Solving for p, Initial residual = 0.00559647, Final residual = 5.18925e-05, No Iterations 8
GAMG:  Solving for p, Initial residual = 0.00177401, Final residual = 1.42722e-05, No Iterations 6
time step continuity errors : sum local = 1.08943e-07, global = 2.93926e-08, cumulative = 3.25676e-07
PIMPLE: iteration 3
DILUPBiCG:  Solving for Ux, Initial residual = 0.00219651, Final residual = 3.46082e-06, No Iterations 2
DILUPBiCG:  Solving for Uy, Initial residual = 0.000501112, Final residual = 5.88075e-06, No Iterations 1
DILUPBiCG:  Solving for Uz, Initial residual = 0.00372749, Final residual = 2.38219e-06, No Iterations 2
GAMG:  Solving for p, Initial residual = 0.0490438, Final residual = 0.000353571, No Iterations 5
GAMG:  Solving for p, Initial residual = 0.0109491, Final residual = 0.000104464, No Iterations 14
GAMG:  Solving for p, Initial residual = 0.00576196, Final residual = 5.56967e-05, No Iterations 10
time step continuity errors : sum local = 4.72629e-07, global = -1.26226e-07, cumulative = 1.9945e-07
GAMG:  Solving for p, Initial residual = 0.00264058, Final residual = 2.21602e-05, No Iterations 8
GAMG:  Solving for p, Initial residual = 0.00140425, Final residual = 1.33978e-05, No Iterations 4
GAMG:  Solving for p, Initial residual = 0.000572661, Final residual = 8.88791e-07, No Iterations 23
time step continuity errors : sum local = 7.44424e-09, global = 2.32833e-09, cumulative = 2.01778e-07
DILUPBiCG:  Solving for omega, Initial residual = 0.00123611, Final residual = 6.91199e-07, No Iterations 1
DILUPBiCG:  Solving for k, Initial residual = 0.00324136, Final residual = 6.40241e-07, No Iterations 2
bounding k, min: 0 max: 0.000542428 average: 0.000146567
ExecutionTime = 10.62 s  ClockTime = 11 s

Courant Number mean: 0.107033 max: 0.230629
Time = 0.494

GAMG:  Solving for cellDisplacementx, Initial residual = 0, Final residual = 0, No Iterations 0
GAMG:  Solving for cellDisplacementy, Initial residual = 0, Final residual = 0, No Iterations 0
GAMG:  Solving for cellDisplacementz, Initial residual = 0, Final residual = 0, No Iterations 0
PIMPLE: iteration 1
DILUPBiCG:  Solving for Ux, Initial residual = 0.0403816, Final residual = 0.000157924, No Iterations 1
DILUPBiCG:  Solving for Uy, Initial residual = 0.0084608, Final residual = 1.71892e-05, No Iterations 1
DILUPBiCG:  Solving for Uz, Initial residual = 0.010189, Final residual = 1.02053e-05, No Iterations 1
GAMG:  Solving for p, Initial residual = 0.100011, Final residual = 0.000449326, No Iterations 4
GAMG:  Solving for p, Initial residual = 0.0124279, Final residual = 0.000117122, No Iterations 16
GAMG:  Solving for p, Initial residual = 0.00644485, Final residual = 5.4627e-05, No Iterations 4
time step continuity errors : sum local = 4.26789e-07, global = 1.49593e-07, cumulative = 3.51371e-07
GAMG:  Solving for p, Initial residual = 0.0465287, Final residual = 0.00020218, No Iterations 4
GAMG:  Solving for p, Initial residual = 0.00603851, Final residual = 5.33242e-05, No Iterations 16
GAMG:  Solving for p, Initial residual = 0.00325922, Final residual = 2.68177e-05, No Iterations 4
time step continuity errors : sum local = 2.10915e-07, global = 7.62675e-08, cumulative = 4.27639e-07
PIMPLE: iteration 2
DILUPBiCG:  Solving for Ux, Initial residual = 0.00999789, Final residual = 6.2176e-05, No Iterations 1
DILUPBiCG:  Solving for Uy, Initial residual = 0.00214957, Final residual = 4.35649e-06, No Iterations 1
DILUPBiCG:  Solving for Uz, Initial residual = 0.0027436, Final residual = 0.000207838, No Iterations 1
GAMG:  Solving for p, Initial residual = 0.0440112, Final residual = 0.000324788, No Iterations 6
GAMG:  Solving for p, Initial residual = 0.0117544, Final residual = 0.000109266, No Iterations 12
GAMG:  Solving for p, Initial residual = 0.00415626, Final residual = 3.97504e-05, No Iterations 12
time step continuity errors : sum local = 2.72543e-07, global = -8.04819e-08, cumulative = 3.47157e-07
GAMG:  Solving for p, Initial residual = 0.0234206, Final residual = 0.000232189, No Iterations 5
GAMG:  Solving for p, Initial residual = 0.00641692, Final residual = 6.22282e-05, No Iterations 8
GAMG:  Solving for p, Initial residual = 0.00200295, Final residual = 1.75774e-05, No Iterations 6
time step continuity errors : sum local = 1.20567e-07, global = 3.95884e-08, cumulative = 3.86745e-07
PIMPLE: iteration 3
DILUPBiCG:  Solving for Ux, Initial residual = 0.00189304, Final residual = 6.21674e-06, No Iterations 2
DILUPBiCG:  Solving for Uy, Initial residual = 0.000437418, Final residual = 6.91721e-06, No Iterations 1
DILUPBiCG:  Solving for Uz, Initial residual = 0.00338317, Final residual = 4.198e-07, No Iterations 3
GAMG:  Solving for p, Initial residual = 0.0504, Final residual = 0.000368681, No Iterations 5
GAMG:  Solving for p, Initial residual = 0.0111762, Final residual = 0.00010959, No Iterations 14
GAMG:  Solving for p, Initial residual = 0.00624958, Final residual = 5.7657e-05, No Iterations 10
time step continuity errors : sum local = 4.39459e-07, global = -1.1989e-07, cumulative = 2.66855e-07
GAMG:  Solving for p, Initial residual = 0.00272827, Final residual = 2.32064e-05, No Iterations 8
GAMG:  Solving for p, Initial residual = 0.00137458, Final residual = 9.77285e-06, No Iterations 6
GAMG:  Solving for p, Initial residual = 0.000535838, Final residual = 9.78027e-07, No Iterations 23
time step continuity errors : sum local = 7.34902e-09, global = 2.36115e-09, cumulative = 2.69217e-07
DILUPBiCG:  Solving for omega, Initial residual = 0.0012533, Final residual = 6.84739e-07, No Iterations 1
DILUPBiCG:  Solving for k, Initial residual = 0.00319768, Final residual = 6.41683e-07, No Iterations 2
bounding k, min: 0 max: 0.00053219 average: 0.000145852
ExecutionTime = 13.51 s  ClockTime = 13 s

Courant Number mean: 0.104775 max: 0.225866
Time = 0.495

GAMG:  Solving for cellDisplacementx, Initial residual = 0, Final residual = 0, No Iterations 0
GAMG:  Solving for cellDisplacementy, Initial residual = 0, Final residual = 0, No Iterations 0
GAMG:  Solving for cellDisplacementz, Initial residual = 0, Final residual = 0, No Iterations 0
PIMPLE: iteration 1
DILUPBiCG:  Solving for Ux, Initial residual = 0.035756, Final residual = 0.000140463, No Iterations 1
DILUPBiCG:  Solving for Uy, Initial residual = 0.00756743, Final residual = 1.53217e-05, No Iterations 1
DILUPBiCG:  Solving for Uz, Initial residual = 0.00967966, Final residual = 1.25627e-05, No Iterations 1
GAMG:  Solving for p, Initial residual = 0.0971009, Final residual = 0.000451765, No Iterations 4
GAMG:  Solving for p, Initial residual = 0.0122466, Final residual = 0.000106359, No Iterations 16
GAMG:  Solving for p, Initial residual = 0.00681972, Final residual = 5.03802e-05, No Iterations 4
time step continuity errors : sum local = 3.48129e-07, global = 1.21481e-07, cumulative = 3.90698e-07
GAMG:  Solving for p, Initial residual = 0.0457778, Final residual = 0.000211172, No Iterations 4
GAMG:  Solving for p, Initial residual = 0.00591291, Final residual = 5.86892e-05, No Iterations 14
GAMG:  Solving for p, Initial residual = 0.00336615, Final residual = 2.71473e-05, No Iterations 4
time step continuity errors : sum local = 1.88994e-07, global = 6.89499e-08, cumulative = 4.59648e-07
PIMPLE: iteration 2
DILUPBiCG:  Solving for Ux, Initial residual = 0.00871917, Final residual = 5.46324e-05, No Iterations 1
DILUPBiCG:  Solving for Uy, Initial residual = 0.00188954, Final residual = 3.82583e-06, No Iterations 1
DILUPBiCG:  Solving for Uz, Initial residual = 0.00282558, Final residual = 8.67242e-05, No Iterations 1
GAMG:  Solving for p, Initial residual = 0.0429124, Final residual = 0.000325844, No Iterations 6
GAMG:  Solving for p, Initial residual = 0.0124267, Final residual = 0.000117178, No Iterations 12
GAMG:  Solving for p, Initial residual = 0.00373816, Final residual = 3.24432e-05, No Iterations 16
time step continuity errors : sum local = 1.97404e-07, global = -6.03158e-08, cumulative = 3.99332e-07
GAMG:  Solving for p, Initial residual = 0.022898, Final residual = 0.000146912, No Iterations 6
GAMG:  Solving for p, Initial residual = 0.0065471, Final residual = 6.23645e-05, No Iterations 10
GAMG:  Solving for p, Initial residual = 0.00172675, Final residual = 1.48097e-05, No Iterations 18
time step continuity errors : sum local = 9.02398e-08, global = -2.6216e-08, cumulative = 3.73116e-07
PIMPLE: iteration 3
DILUPBiCG:  Solving for Ux, Initial residual = 0.00159437, Final residual = 8.9114e-08, No Iterations 3
DILUPBiCG:  Solving for Uy, Initial residual = 0.000374447, Final residual = 9.66715e-06, No Iterations 1
DILUPBiCG:  Solving for Uz, Initial residual = 0.00300902, Final residual = 1.53033e-07, No Iterations 3
GAMG:  Solving for p, Initial residual = 0.0530707, Final residual = 0.000375034, No Iterations 5
GAMG:  Solving for p, Initial residual = 0.0114918, Final residual = 0.000112663, No Iterations 14
GAMG:  Solving for p, Initial residual = 0.00628617, Final residual = 6.01441e-05, No Iterations 10
time step continuity errors : sum local = 4.05297e-07, global = -1.10254e-07, cumulative = 2.62862e-07
GAMG:  Solving for p, Initial residual = 0.00273356, Final residual = 2.29362e-05, No Iterations 8
GAMG:  Solving for p, Initial residual = 0.00145838, Final residual = 1.37609e-05, No Iterations 4
GAMG:  Solving for p, Initial residual = 0.000578584, Final residual = 8.46951e-07, No Iterations 25
time step continuity errors : sum local = 5.62886e-09, global = 1.79741e-09, cumulative = 2.64659e-07
DILUPBiCG:  Solving for omega, Initial residual = 0.00126694, Final residual = 6.78657e-07, No Iterations 1
DILUPBiCG:  Solving for k, Initial residual = 0.00315707, Final residual = 6.50484e-07, No Iterations 2
bounding k, min: 0 max: 0.000525548 average: 0.000145161
ExecutionTime = 16.6 s  ClockTime = 17 s

Courant Number mean: 0.10285 max: 0.221796
Time = 0.496

GAMG:  Solving for cellDisplacementx, Initial residual = 0, Final residual = 0, No Iterations 0
GAMG:  Solving for cellDisplacementy, Initial residual = 0, Final residual = 0, No Iterations 0
GAMG:  Solving for cellDisplacementz, Initial residual = 0, Final residual = 0, No Iterations 0
PIMPLE: iteration 1
DILUPBiCG:  Solving for Ux, Initial residual = 0.030922, Final residual = 0.000121598, No Iterations 1
DILUPBiCG:  Solving for Uy, Initial residual = 0.00660883, Final residual = 1.33373e-05, No Iterations 1
DILUPBiCG:  Solving for Uz, Initial residual = 0.00892094, Final residual = 1.11178e-05, No Iterations 1
GAMG:  Solving for p, Initial residual = 0.0945856, Final residual = 0.00043094, No Iterations 4
GAMG:  Solving for p, Initial residual = 0.0113921, Final residual = 9.53902e-05, No Iterations 12
GAMG:  Solving for p, Initial residual = 0.00583941, Final residual = 4.5368e-05, No Iterations 4
time step continuity errors : sum local = 2.7155e-07, global = 9.81036e-08, cumulative = 3.62763e-07
GAMG:  Solving for p, Initial residual = 0.0451116, Final residual = 0.00020013, No Iterations 4
GAMG:  Solving for p, Initial residual = 0.00553557, Final residual = 4.832e-05, No Iterations 12
GAMG:  Solving for p, Initial residual = 0.00293028, Final residual = 2.278e-05, No Iterations 4
time step continuity errors : sum local = 1.37145e-07, global = 5.005e-08, cumulative = 4.12813e-07
PIMPLE: iteration 2
DILUPBiCG:  Solving for Ux, Initial residual = 0.00739085, Final residual = 4.66741e-05, No Iterations 1
DILUPBiCG:  Solving for Uy, Initial residual = 0.00161613, Final residual = 3.28879e-06, No Iterations 1
DILUPBiCG:  Solving for Uz, Initial residual = 0.00291043, Final residual = 0.000117479, No Iterations 1
GAMG:  Solving for p, Initial residual = 0.041992, Final residual = 0.000342495, No Iterations 6
GAMG:  Solving for p, Initial residual = 0.0144457, Final residual = 0.000129078, No Iterations 10
GAMG:  Solving for p, Initial residual = 0.00418451, Final residual = 3.61531e-05, No Iterations 16
time step continuity errors : sum local = 1.89942e-07, global = -5.50814e-08, cumulative = 3.57731e-07
GAMG:  Solving for p, Initial residual = 0.0223012, Final residual = 0.000155694, No Iterations 6
GAMG:  Solving for p, Initial residual = 0.00760131, Final residual = 7.35998e-05, No Iterations 7
GAMG:  Solving for p, Initial residual = 0.00194017, Final residual = 1.71424e-05, No Iterations 17
time step continuity errors : sum local = 8.99823e-08, global = -2.505e-08, cumulative = 3.32681e-07
PIMPLE: iteration 3
DILUPBiCG:  Solving for Ux, Initial residual = 0.00125653, Final residual = 2.17599e-06, No Iterations 2
DILUPBiCG:  Solving for Uy, Initial residual = 0.000299695, Final residual = 9.33276e-08, No Iterations 2
DILUPBiCG:  Solving for Uz, Initial residual = 0.00256794, Final residual = 2.52101e-06, No Iterations 2
GAMG:  Solving for p, Initial residual = 0.056184, Final residual = 0.000395193, No Iterations 5
GAMG:  Solving for p, Initial residual = 0.0119377, Final residual = 0.000103116, No Iterations 16
GAMG:  Solving for p, Initial residual = 0.00716934, Final residual = 6.6205e-05, No Iterations 8
time step continuity errors : sum local = 3.82761e-07, global = -8.74208e-08, cumulative = 2.4526e-07
GAMG:  Solving for p, Initial residual = 0.00283197, Final residual = 2.22261e-05, No Iterations 8
GAMG:  Solving for p, Initial residual = 0.00148452, Final residual = 1.4274e-05, No Iterations 4
GAMG:  Solving for p, Initial residual = 0.000546166, Final residual = 9.44336e-07, No Iterations 27
time step continuity errors : sum local = 5.38271e-09, global = 1.66735e-09, cumulative = 2.46928e-07
DILUPBiCG:  Solving for omega, Initial residual = 0.00127682, Final residual = 6.73397e-07, No Iterations 1
DILUPBiCG:  Solving for k, Initial residual = 0.00311856, Final residual = 6.67667e-07, No Iterations 2
bounding k, min: 0 max: 0.000520158 average: 0.000144495
ExecutionTime = 19.62 s  ClockTime = 20 s

Courant Number mean: 0.101261 max: 0.218431
Time = 0.497

GAMG:  Solving for cellDisplacementx, Initial residual = 0, Final residual = 0, No Iterations 0
GAMG:  Solving for cellDisplacementy, Initial residual = 0, Final residual = 0, No Iterations 0
GAMG:  Solving for cellDisplacementz, Initial residual = 0, Final residual = 0, No Iterations 0
PIMPLE: iteration 1
DILUPBiCG:  Solving for Ux, Initial residual = 0.0257092, Final residual = 0.000101663, No Iterations 1
DILUPBiCG:  Solving for Uy, Initial residual = 0.00554776, Final residual = 1.1172e-05, No Iterations 1
DILUPBiCG:  Solving for Uz, Initial residual = 0.00839177, Final residual = 1.51411e-05, No Iterations 1
GAMG:  Solving for p, Initial residual = 0.0908834, Final residual = 0.000662887, No Iterations 3
GAMG:  Solving for p, Initial residual = 0.0117135, Final residual = 7.62638e-05, No Iterations 5
GAMG:  Solving for p, Initial residual = 0.00563975, Final residual = 3.96051e-05, No Iterations 4
time step continuity errors : sum local = 1.976e-07, global = 6.76524e-08, cumulative = 3.1458e-07
GAMG:  Solving for p, Initial residual = 0.0443338, Final residual = 0.000310941, No Iterations 3
GAMG:  Solving for p, Initial residual = 0.00568007, Final residual = 4.85956e-05, No Iterations 7
GAMG:  Solving for p, Initial residual = 0.00286802, Final residual = 2.18738e-05, No Iterations 4
time step continuity errors : sum local = 1.10014e-07, global = 3.86276e-08, cumulative = 3.53208e-07
PIMPLE: iteration 2
DILUPBiCG:  Solving for Ux, Initial residual = 0.00598072, Final residual = 3.8331e-05, No Iterations 1
DILUPBiCG:  Solving for Uy, Initial residual = 0.00131891, Final residual = 2.71378e-06, No Iterations 1
DILUPBiCG:  Solving for Uz, Initial residual = 0.00296082, Final residual = 0.000110378, No Iterations 1
GAMG:  Solving for p, Initial residual = 0.0407068, Final residual = 0.000355527, No Iterations 6
GAMG:  Solving for p, Initial residual = 0.0167877, Final residual = 0.000166223, No Iterations 9
GAMG:  Solving for p, Initial residual = 0.00399575, Final residual = 3.91816e-05, No Iterations 17
time step continuity errors : sum local = 1.72058e-07, global = -4.78521e-08, cumulative = 3.05356e-07
GAMG:  Solving for p, Initial residual = 0.0216644, Final residual = 0.000163067, No Iterations 6
GAMG:  Solving for p, Initial residual = 0.00860214, Final residual = 7.50513e-05, No Iterations 8
GAMG:  Solving for p, Initial residual = 0.00181671, Final residual = 1.79642e-05, No Iterations 18
time step continuity errors : sum local = 7.89219e-08, global = -2.23356e-08, cumulative = 2.8302e-07
PIMPLE: iteration 3
DILUPBiCG:  Solving for Ux, Initial residual = 0.000925888, Final residual = 9.19588e-07, No Iterations 2
DILUPBiCG:  Solving for Uy, Initial residual = 0.000228807, Final residual = 7.4983e-06, No Iterations 1
DILUPBiCG:  Solving for Uz, Initial residual = 0.00224141, Final residual = 1.56262e-06, No Iterations 2
GAMG:  Solving for p, Initial residual = 0.0613524, Final residual = 0.000413063, No Iterations 5
GAMG:  Solving for p, Initial residual = 0.0122752, Final residual = 0.000110199, No Iterations 16
GAMG:  Solving for p, Initial residual = 0.00756648, Final residual = 7.05341e-05, No Iterations 8
time step continuity errors : sum local = 3.38758e-07, global = -7.84988e-08, cumulative = 2.04521e-07
GAMG:  Solving for p, Initial residual = 0.00281372, Final residual = 2.21762e-05, No Iterations 8
GAMG:  Solving for p, Initial residual = 0.00155261, Final residual = 1.47706e-05, No Iterations 4
GAMG:  Solving for p, Initial residual = 0.000569958, Final residual = 9.75686e-07, No Iterations 29
time step continuity errors : sum local = 4.62341e-09, global = 1.396e-09, cumulative = 2.05917e-07
DILUPBiCG:  Solving for omega, Initial residual = 0.00128322, Final residual = 6.6884e-07, No Iterations 1
DILUPBiCG:  Solving for k, Initial residual = 0.00308179, Final residual = 6.95538e-07, No Iterations 2
bounding k, min: 0 max: 0.000514499 average: 0.000143852
ExecutionTime = 22.66 s  ClockTime = 23 s

Courant Number mean: 0.100018 max: 0.215785
Time = 0.498

GAMG:  Solving for cellDisplacementx, Initial residual = 0, Final residual = 0, No Iterations 0
GAMG:  Solving for cellDisplacementy, Initial residual = 0, Final residual = 0, No Iterations 0
GAMG:  Solving for cellDisplacementz, Initial residual = 0, Final residual = 0, No Iterations 0
PIMPLE: iteration 1
DILUPBiCG:  Solving for Ux, Initial residual = 0.0203455, Final residual = 8.06261e-05, No Iterations 1
DILUPBiCG:  Solving for Uy, Initial residual = 0.00443983, Final residual = 8.9122e-06, No Iterations 1
DILUPBiCG:  Solving for Uz, Initial residual = 0.00856002, Final residual = 1.42974e-05, No Iterations 1
GAMG:  Solving for p, Initial residual = 0.0870878, Final residual = 0.000350906, No Iterations 4
GAMG:  Solving for p, Initial residual = 0.0119436, Final residual = 9.94585e-05, No Iterations 10
GAMG:  Solving for p, Initial residual = 0.005522, Final residual = 5.00249e-05, No Iterations 6
time step continuity errors : sum local = 2.0101e-07, global = -5.51636e-08, cumulative = 1.50754e-07
GAMG:  Solving for p, Initial residual = 0.0429826, Final residual = 0.000175038, No Iterations 4
GAMG:  Solving for p, Initial residual = 0.00611947, Final residual = 5.22502e-05, No Iterations 10
GAMG:  Solving for p, Initial residual = 0.00273382, Final residual = 2.67411e-05, No Iterations 6
time step continuity errors : sum local = 1.07413e-07, global = -2.83355e-08, cumulative = 1.22418e-07
PIMPLE: iteration 2
DILUPBiCG:  Solving for Ux, Initial residual = 0.00453437, Final residual = 2.9892e-05, No Iterations 1
DILUPBiCG:  Solving for Uy, Initial residual = 0.00101408, Final residual = 2.18286e-06, No Iterations 1
DILUPBiCG:  Solving for Uz, Initial residual = 0.00305635, Final residual = 1.42157e-06, No Iterations 2
GAMG:  Solving for p, Initial residual = 0.0393481, Final residual = 0.000391568, No Iterations 6
GAMG:  Solving for p, Initial residual = 0.0212655, Final residual = 0.000186456, No Iterations 7
GAMG:  Solving for p, Initial residual = 0.00455048, Final residual = 4.16363e-05, No Iterations 19
time step continuity errors : sum local = 1.45401e-07, global = -4.08383e-08, cumulative = 8.158e-08
GAMG:  Solving for p, Initial residual = 0.0208724, Final residual = 0.000181895, No Iterations 6
GAMG:  Solving for p, Initial residual = 0.0106311, Final residual = 9.56194e-05, No Iterations 6
GAMG:  Solving for p, Initial residual = 0.00209611, Final residual = 1.80124e-05, No Iterations 20
time step continuity errors : sum local = 6.28357e-08, global = -1.77156e-08, cumulative = 6.38644e-08
PIMPLE: iteration 3
DILUPBiCG:  Solving for Ux, Initial residual = 0.00056782, Final residual = 7.76653e-06, No Iterations 1
DILUPBiCG:  Solving for Uy, Initial residual = 0.000148065, Final residual = 1.71635e-06, No Iterations 1
DILUPBiCG:  Solving for Uz, Initial residual = 0.00185067, Final residual = 1.09398e-06, No Iterations 2
GAMG:  Solving for p, Initial residual = 0.0693523, Final residual = 0.000448623, No Iterations 5
GAMG:  Solving for p, Initial residual = 0.0131909, Final residual = 0.000123489, No Iterations 16
GAMG:  Solving for p, Initial residual = 0.00903466, Final residual = 7.59957e-05, No Iterations 8
time step continuity errors : sum local = 2.86685e-07, global = -7.07033e-08, cumulative = -6.83892e-09
GAMG:  Solving for p, Initial residual = 0.00306405, Final residual = 2.35217e-05, No Iterations 8
GAMG:  Solving for p, Initial residual = 0.0016287, Final residual = 1.58247e-05, No Iterations 4
GAMG:  Solving for p, Initial residual = 0.000561387, Final residual = 9.48197e-07, No Iterations 31
time step continuity errors : sum local = 3.52444e-09, global = 1.06551e-09, cumulative = -5.7734e-09
DILUPBiCG:  Solving for omega, Initial residual = 0.00128604, Final residual = 6.65341e-07, No Iterations 1
DILUPBiCG:  Solving for k, Initial residual = 0.00304638, Final residual = 7.28352e-07, No Iterations 2
bounding k, min: 0 max: 0.000508583 average: 0.000143234
ExecutionTime = 25.9 s  ClockTime = 26 s

Courant Number mean: 0.0991226 max: 0.213867
Time = 0.499

GAMG:  Solving for cellDisplacementx, Initial residual = 0, Final residual = 0, No Iterations 0
GAMG:  Solving for cellDisplacementy, Initial residual = 0, Final residual = 0, No Iterations 0
GAMG:  Solving for cellDisplacementz, Initial residual = 0, Final residual = 0, No Iterations 0
PIMPLE: iteration 1
DILUPBiCG:  Solving for Ux, Initial residual = 0.0147665, Final residual = 5.89604e-05, No Iterations 1
DILUPBiCG:  Solving for Uy, Initial residual = 0.0032782, Final residual = 6.6094e-06, No Iterations 1
DILUPBiCG:  Solving for Uz, Initial residual = 0.0087126, Final residual = 1.90774e-05, No Iterations 1
GAMG:  Solving for p, Initial residual = 0.0834063, Final residual = 0.000578902, No Iterations 4
GAMG:  Solving for p, Initial residual = 0.0200565, Final residual = 0.000200494, No Iterations 8
GAMG:  Solving for p, Initial residual = 0.0064924, Final residual = 5.99842e-05, No Iterations 14
time step continuity errors : sum local = 1.76681e-07, global = -5.28998e-08, cumulative = -5.86732e-08
GAMG:  Solving for p, Initial residual = 0.0425414, Final residual = 0.000272294, No Iterations 4
GAMG:  Solving for p, Initial residual = 0.0100686, Final residual = 9.89037e-05, No Iterations 8
GAMG:  Solving for p, Initial residual = 0.00310039, Final residual = 2.99802e-05, No Iterations 14
time step continuity errors : sum local = 8.81211e-08, global = -2.62334e-08, cumulative = -8.49067e-08
PIMPLE: iteration 2
DILUPBiCG:  Solving for Ux, Initial residual = 0.00303028, Final residual = 2.27331e-05, No Iterations 1
DILUPBiCG:  Solving for Uy, Initial residual = 0.000693455, Final residual = 1.79007e-06, No Iterations 1
DILUPBiCG:  Solving for Uz, Initial residual = 0.00306036, Final residual = 1.43365e-06, No Iterations 2
GAMG:  Solving for p, Initial residual = 0.0392704, Final residual = 0.000358409, No Iterations 8
GAMG:  Solving for p, Initial residual = 0.0276026, Final residual = 0.000236778, No Iterations 5
GAMG:  Solving for p, Initial residual = 0.0044621, Final residual = 4.20918e-05, No Iterations 21
time step continuity errors : sum local = 1.07995e-07, global = -3.08885e-08, cumulative = -1.15795e-07
GAMG:  Solving for p, Initial residual = 0.0210376, Final residual = 0.000168986, No Iterations 8
GAMG:  Solving for p, Initial residual = 0.0132743, Final residual = 0.000110427, No Iterations 5
GAMG:  Solving for p, Initial residual = 0.00216786, Final residual = 1.86151e-05, No Iterations 21
time step continuity errors : sum local = 4.77231e-08, global = -1.36332e-08, cumulative = -1.29428e-07
PIMPLE: iteration 3
DILUPBiCG:  Solving for Ux, Initial residual = 0.000227717, Final residual = 2.07599e-06, No Iterations 1
DILUPBiCG:  Solving for Uy, Initial residual = 7.83763e-05, Final residual = 4.6706e-07, No Iterations 1
DILUPBiCG:  Solving for Uz, Initial residual = 0.00150359, Final residual = 6.7783e-07, No Iterations 2
GAMG:  Solving for p, Initial residual = 0.0836836, Final residual = 0.000764444, No Iterations 3
GAMG:  Solving for p, Initial residual = 0.0135942, Final residual = 0.000125042, No Iterations 20
GAMG:  Solving for p, Initial residual = 0.0134707, Final residual = 0.000128213, No Iterations 4
time step continuity errors : sum local = 3.47764e-07, global = -5.8128e-08, cumulative = -1.87556e-07
GAMG:  Solving for p, Initial residual = 0.00354804, Final residual = 3.12897e-05, No Iterations 8
GAMG:  Solving for p, Initial residual = 0.00192654, Final residual = 1.86444e-05, No Iterations 4
GAMG:  Solving for p, Initial residual = 0.000659942, Final residual = 8.52423e-07, No Iterations 29
time step continuity errors : sum local = 2.27241e-09, global = 7.60071e-10, cumulative = -1.86796e-07
DILUPBiCG:  Solving for omega, Initial residual = 0.00128537, Final residual = 6.62788e-07, No Iterations 1
DILUPBiCG:  Solving for k, Initial residual = 0.00301263, Final residual = 7.67341e-07, No Iterations 2
bounding k, min: 0 max: 0.000502304 average: 0.000142639
ExecutionTime = 29.12 s  ClockTime = 29 s

Courant Number mean: 0.0985803 max: 0.212683
Time = 0.5

GAMG:  Solving for cellDisplacementx, Initial residual = 0, Final residual = 0, No Iterations 0
GAMG:  Solving for cellDisplacementy, Initial residual = 0, Final residual = 0, No Iterations 0
GAMG:  Solving for cellDisplacementz, Initial residual = 0, Final residual = 0, No Iterations 0
PIMPLE: iteration 1
DILUPBiCG:  Solving for Ux, Initial residual = 0.00915823, Final residual = 3.69914e-05, No Iterations 1
DILUPBiCG:  Solving for Uy, Initial residual = 0.00211195, Final residual = 4.28542e-06, No Iterations 1
DILUPBiCG:  Solving for Uz, Initial residual = 0.00941276, Final residual = 1.92508e-05, No Iterations 1
GAMG:  Solving for p, Initial residual = 0.080977, Final residual = 0.000673986, No Iterations 6
GAMG:  Solving for p, Initial residual = 0.0465605, Final residual = 0.000367886, No Iterations 4
GAMG:  Solving for p, Initial residual = 0.0080359, Final residual = 8.00113e-05, No Iterations 19
time step continuity errors : sum local = 1.48206e-07, global = -4.1589e-08, cumulative = -2.28385e-07
GAMG:  Solving for p, Initial residual = 0.04377, Final residual = 0.000389462, No Iterations 5
GAMG:  Solving for p, Initial residual = 0.0224805, Final residual = 0.0001522, No Iterations 4
GAMG:  Solving for p, Initial residual = 0.0040054, Final residual = 3.39539e-05, No Iterations 12
time step continuity errors : sum local = 6.22143e-08, global = -1.82203e-08, cumulative = -2.46606e-07
PIMPLE: iteration 2
DILUPBiCG:  Solving for Ux, Initial residual = 0.00151437, Final residual = 2.77204e-05, No Iterations 1
DILUPBiCG:  Solving for Uy, Initial residual = 0.000376274, Final residual = 4.06945e-06, No Iterations 1
DILUPBiCG:  Solving for Uz, Initial residual = 0.00302492, Final residual = 1.38354e-06, No Iterations 2
GAMG:  Solving for p, Initial residual = 0.0412644, Final residual = 0.000395939, No Iterations 11
GAMG:  Solving for p, Initial residual = 0.03462, Final residual = 0.000293598, No Iterations 6
GAMG:  Solving for p, Initial residual = 0.00617695, Final residual = 6.02657e-05, No Iterations 20
time step continuity errors : sum local = 9.9432e-08, global = -2.81785e-08, cumulative = -2.74784e-07
GAMG:  Solving for p, Initial residual = 0.0227123, Final residual = 0.000208333, No Iterations 9
GAMG:  Solving for p, Initial residual = 0.0160668, Final residual = 0.000157418, No Iterations 6
GAMG:  Solving for p, Initial residual = 0.00311388, Final residual = 3.02316e-05, No Iterations 20
time step continuity errors : sum local = 4.97296e-08, global = -1.40937e-08, cumulative = -2.88878e-07
PIMPLE: iteration 3
DILUPBiCG:  Solving for Ux, Initial residual = 0.000191852, Final residual = 1.98005e-06, No Iterations 1
DILUPBiCG:  Solving for Uy, Initial residual = 7.0846e-05, Final residual = 1.02036e-06, No Iterations 1
DILUPBiCG:  Solving for Uz, Initial residual = 0.00119087, Final residual = 8.06794e-06, No Iterations 1
GAMG:  Solving for p, Initial residual = 0.11475, Final residual = 0.00100735, No Iterations 3
GAMG:  Solving for p, Initial residual = 0.0159122, Final residual = 0.000153639, No Iterations 20
GAMG:  Solving for p, Initial residual = 0.0174184, Final residual = 0.000170736, No Iterations 4
time step continuity errors : sum local = 2.80225e-07, global = -4.39375e-08, cumulative = -3.32815e-07
GAMG:  Solving for p, Initial residual = 0.00457617, Final residual = 3.61696e-05, No Iterations 8
GAMG:  Solving for p, Initial residual = 0.00230148, Final residual = 1.78082e-05, No Iterations 6
GAMG:  Solving for p, Initial residual = 0.000757679, Final residual = 9.87647e-07, No Iterations 22
time step continuity errors : sum local = 1.58482e-09, global = -4.41411e-10, cumulative = -3.33257e-07
DILUPBiCG:  Solving for omega, Initial residual = 0.00128119, Final residual = 6.61362e-07, No Iterations 1
DILUPBiCG:  Solving for k, Initial residual = 0.00298022, Final residual = 8.08143e-07, No Iterations 2
bounding k, min: 0 max: 0.000495727 average: 0.00014207
ExecutionTime = 32.42 s  ClockTime = 32 s

End

