/*---------------------------------------------------------------------------*\
| =========                 |                                                 |
| \\      /  F ield         | OpenFOAM: The Open Source CFD Toolbox           |
|  \\    /   O peration     | Version:  2.3.1                                 |
|   \\  /    A nd           | Web:      www.OpenFOAM.org                      |
|    \\/     M anipulation  |                                                 |
\*---------------------------------------------------------------------------*/
Build  : 2.3.1-262087cdf8db
Exec   : linearisedPimpleDyMFoam
Date   : Jun 06 2023
Time   : 01:49:42
Host   : "jcosson-VirtualBox"
PID    : 12756
Case   : /home/jcosson/workspace/henersj_shootingdata/calcs/moderate_deformed/primal/100_intervals_05-06-23/sweep44/interval87
nProcs : 1
sigFpe : Enabling floating point exception trapping (FOAM_SIGFPE).
fileModificationChecking : Monitoring run-time modified files using timeStampMaster
allowSystemOperations : Allowing user-supplied system call operations

// * * * * * * * * * * * * * * * * * * * * * * * * * * * * * * * * * * * * * //
Create time

Create mesh for time = 0.486

Selecting dynamicFvMesh dynamicMotionSolverFvMesh
Selecting motion solver: displacementLaplacian
Selecting motion diffusion: quadratic
Selecting motion diffusion: quadratic
Selecting motion diffusion: inverseDistance
Reading field linP

Reading field linU

starte createPhia.H

Reading/calculating face flux field linPhi

Adjungierte Interpolation durchgefuehrt

createPhia.H verlassen

setRefCell ausgefuehrt

No finite volume options present


PIMPLE: no residual control data found. Calculations will employ 3 corrector loops


Starting time loop

Time = 0.487

Reading field p

Reading field U

Read primal fluxes 

Reading primal face flux fields phi/meshPhi

Created primal fluxes 

Selecting incompressible transport model Newtonian
singlePhaseTransportModel gewaehlt 

Selecting turbulence model type RASModel
Selecting RAS turbulence model kOmegaSST
bounding k, min: 0 max: 0.000657429 average: 0.000154392
kOmegaSSTCoeffs
{
    alphaK1         0.85034;
    alphaK2         1;
    alphaOmega1     0.5;
    alphaOmega2     0.85616;
    gamma1          0.5532;
    gamma2          0.4403;
    beta1           0.075;
    beta2           0.0828;
    betaStar        0.09;
    a1              0.31;
    c1              10;
    Cmu             0.09;
    b1              1;
    F3              false;
}

autoPtr ausgefuehrt

Reading/calculating face velocity Uf

Init adjoint face velocity linUf

Courant Number mean: 0.127287 max: 0.286429
Adjoint Courant Number mean: 0.000136007 max: 0.00186345
GAMG:  Solving for cellDisplacementx, Initial residual = 0, Final residual = 0, No Iterations 0
GAMG:  Solving for cellDisplacementy, Initial residual = 0, Final residual = 0, No Iterations 0
GAMG:  Solving for cellDisplacementz, Initial residual = 0, Final residual = 0, No Iterations 0
PIMPLE: iteration 1
DILUPBiCG:  Solving for linUx, Initial residual = 0.0190642, Final residual = 6.49337e-05, No Iterations 1
DILUPBiCG:  Solving for linUy, Initial residual = 0.0366655, Final residual = 8.91088e-05, No Iterations 1
DILUPBiCG:  Solving for linUz, Initial residual = 0.0693266, Final residual = 0.000145664, No Iterations 1
GAMG:  Solving for linP, Initial residual = 1, Final residual = 0.00382106, No Iterations 3
GAMG:  Solving for linP, Initial residual = 0.0248963, Final residual = 0.00023573, No Iterations 4
GAMG:  Solving for linP, Initial residual = 0.00773247, Final residual = 7.26582e-05, No Iterations 3
Adjoint continuity errors : sum local = 5.72549e-09, global = 7.89323e-12, cumulative = 7.89323e-12
GAMG:  Solving for linP, Initial residual = 0.024543, Final residual = 8.92892e-05, No Iterations 4
GAMG:  Solving for linP, Initial residual = 0.00479514, Final residual = 2.53686e-05, No Iterations 4
GAMG:  Solving for linP, Initial residual = 0.00166551, Final residual = 1.5163e-05, No Iterations 4
Adjoint continuity errors : sum local = 1.16202e-09, global = -2.07808e-11, cumulative = -1.28876e-11
PIMPLE: iteration 2
DILUPBiCG:  Solving for linUx, Initial residual = 0.00183522, Final residual = 1.95073e-05, No Iterations 1
DILUPBiCG:  Solving for linUy, Initial residual = 0.00384651, Final residual = 4.85568e-05, No Iterations 1
DILUPBiCG:  Solving for linUz, Initial residual = 0.00715073, Final residual = 2.96403e-05, No Iterations 1
GAMG:  Solving for linP, Initial residual = 0.0313905, Final residual = 0.000157944, No Iterations 3
GAMG:  Solving for linP, Initial residual = 0.00313577, Final residual = 2.85729e-05, No Iterations 3
GAMG:  Solving for linP, Initial residual = 0.000919012, Final residual = 4.69037e-06, No Iterations 4
Adjoint continuity errors : sum local = 3.69347e-10, global = 1.09843e-11, cumulative = -1.90326e-12
GAMG:  Solving for linP, Initial residual = 0.00145899, Final residual = 7.79371e-06, No Iterations 4
GAMG:  Solving for linP, Initial residual = 0.000472417, Final residual = 4.46969e-06, No Iterations 3
GAMG:  Solving for linP, Initial residual = 0.000152994, Final residual = 8.14798e-07, No Iterations 4
Adjoint continuity errors : sum local = 6.41332e-11, global = -3.3927e-12, cumulative = -5.29596e-12
PIMPLE: iteration 3
DILUPBiCG:  Solving for linUx, Initial residual = 0.000205509, Final residual = 1.94738e-06, No Iterations 1
DILUPBiCG:  Solving for linUy, Initial residual = 0.000363002, Final residual = 5.96702e-06, No Iterations 1
DILUPBiCG:  Solving for linUz, Initial residual = 0.000558934, Final residual = 3.43165e-06, No Iterations 1
GAMG:  Solving for linP, Initial residual = 0.0366657, Final residual = 0.000269514, No Iterations 2
GAMG:  Solving for linP, Initial residual = 0.00163944, Final residual = 7.44694e-06, No Iterations 4
GAMG:  Solving for linP, Initial residual = 0.000598115, Final residual = 2.8015e-06, No Iterations 4
Adjoint continuity errors : sum local = 2.29293e-10, global = -3.58118e-11, cumulative = -4.11077e-11
GAMG:  Solving for linP, Initial residual = 0.00115425, Final residual = 5.88383e-06, No Iterations 3
GAMG:  Solving for linP, Initial residual = 0.000171966, Final residual = 9.17543e-07, No Iterations 4
GAMG:  Solving for linP, Initial residual = 6.84491e-05, Final residual = 8.60471e-07, No Iterations 3
Adjoint continuity errors : sum local = 7.05297e-11, global = 2.30834e-13, cumulative = -4.08769e-11
ExecutionTime = 10.63 s  ClockTime = 11 s

End

