/*---------------------------------------------------------------------------*\
| =========                 |                                                 |
| \\      /  F ield         | OpenFOAM: The Open Source CFD Toolbox           |
|  \\    /   O peration     | Version:  2.3.1                                 |
|   \\  /    A nd           | Web:      www.OpenFOAM.org                      |
|    \\/     M anipulation  |                                                 |
\*---------------------------------------------------------------------------*/
Build  : 2.3.1-262087cdf8db
Exec   : linearisedPimpleDyMFoam
Date   : Jun 06 2023
Time   : 02:01:37
Host   : "jcosson-VirtualBox"
PID    : 18794
Case   : /home/jcosson/workspace/henersj_shootingdata/calcs/moderate_deformed/primal/100_intervals_05-06-23/sweep49/interval80
nProcs : 1
sigFpe : Enabling floating point exception trapping (FOAM_SIGFPE).
fileModificationChecking : Monitoring run-time modified files using timeStampMaster
allowSystemOperations : Allowing user-supplied system call operations

// * * * * * * * * * * * * * * * * * * * * * * * * * * * * * * * * * * * * * //
Create time

Create mesh for time = 0.479

Selecting dynamicFvMesh dynamicMotionSolverFvMesh
Selecting motion solver: displacementLaplacian
Selecting motion diffusion: quadratic
Selecting motion diffusion: quadratic
Selecting motion diffusion: inverseDistance
Reading field linP

Reading field linU

starte createPhia.H

Reading/calculating face flux field linPhi

Adjungierte Interpolation durchgefuehrt

createPhia.H verlassen

setRefCell ausgefuehrt

No finite volume options present


PIMPLE: no residual control data found. Calculations will employ 3 corrector loops


Starting time loop

Time = 0.48

Reading field p

Reading field U

Read primal fluxes 

Reading primal face flux fields phi/meshPhi

Created primal fluxes 

Selecting incompressible transport model Newtonian
singlePhaseTransportModel gewaehlt 

Selecting turbulence model type RASModel
Selecting RAS turbulence model kOmegaSST
bounding k, min: 0 max: 0.000730858 average: 0.000159575
kOmegaSSTCoeffs
{
    alphaK1         0.85034;
    alphaK2         1;
    alphaOmega1     0.5;
    alphaOmega2     0.85616;
    gamma1          0.5532;
    gamma2          0.4403;
    beta1           0.075;
    beta2           0.0828;
    betaStar        0.09;
    a1              0.31;
    c1              10;
    Cmu             0.09;
    b1              1;
    F3              false;
}

autoPtr ausgefuehrt

Reading/calculating face velocity Uf

Init adjoint face velocity linUf

Courant Number mean: 0.161138 max: 0.352568
Adjoint Courant Number mean: 0.000125654 max: 0.00192862
GAMG:  Solving for cellDisplacementx, Initial residual = 0, Final residual = 0, No Iterations 0
GAMG:  Solving for cellDisplacementy, Initial residual = 0, Final residual = 0, No Iterations 0
GAMG:  Solving for cellDisplacementz, Initial residual = 0, Final residual = 0, No Iterations 0
PIMPLE: iteration 1
DILUPBiCG:  Solving for linUx, Initial residual = 0.0254132, Final residual = 9.65817e-05, No Iterations 1
DILUPBiCG:  Solving for linUy, Initial residual = 0.0506812, Final residual = 0.000134993, No Iterations 1
DILUPBiCG:  Solving for linUz, Initial residual = 0.108287, Final residual = 0.000234889, No Iterations 1
GAMG:  Solving for linP, Initial residual = 1, Final residual = 0.00305677, No Iterations 3
GAMG:  Solving for linP, Initial residual = 0.020606, Final residual = 0.000147111, No Iterations 4
GAMG:  Solving for linP, Initial residual = 0.0064919, Final residual = 5.85862e-05, No Iterations 3
Adjoint continuity errors : sum local = 6.72104e-09, global = 8.4875e-11, cumulative = 8.4875e-11
GAMG:  Solving for linP, Initial residual = 0.0290662, Final residual = 0.000267869, No Iterations 3
GAMG:  Solving for linP, Initial residual = 0.00444404, Final residual = 2.88658e-05, No Iterations 4
GAMG:  Solving for linP, Initial residual = 0.00160709, Final residual = 1.19229e-05, No Iterations 4
Adjoint continuity errors : sum local = 1.32296e-09, global = -8.74153e-12, cumulative = 7.61335e-11
PIMPLE: iteration 2
DILUPBiCG:  Solving for linUx, Initial residual = 0.00247044, Final residual = 1.90992e-06, No Iterations 2
DILUPBiCG:  Solving for linUy, Initial residual = 0.00508561, Final residual = 4.26249e-05, No Iterations 1
DILUPBiCG:  Solving for linUz, Initial residual = 0.00993652, Final residual = 3.63825e-05, No Iterations 1
GAMG:  Solving for linP, Initial residual = 0.0315215, Final residual = 0.000127865, No Iterations 3
GAMG:  Solving for linP, Initial residual = 0.00251738, Final residual = 1.78849e-05, No Iterations 4
GAMG:  Solving for linP, Initial residual = 0.000765649, Final residual = 5.56497e-06, No Iterations 3
Adjoint continuity errors : sum local = 6.36623e-10, global = 3.90011e-12, cumulative = 8.00336e-11
GAMG:  Solving for linP, Initial residual = 0.00158271, Final residual = 1.54217e-05, No Iterations 3
GAMG:  Solving for linP, Initial residual = 0.000406512, Final residual = 3.72561e-06, No Iterations 3
GAMG:  Solving for linP, Initial residual = 0.000135409, Final residual = 7.87999e-07, No Iterations 4
Adjoint continuity errors : sum local = 9.00884e-11, global = 1.58408e-11, cumulative = 9.58744e-11
PIMPLE: iteration 3
DILUPBiCG:  Solving for linUx, Initial residual = 0.000294156, Final residual = 2.89276e-06, No Iterations 1
DILUPBiCG:  Solving for linUy, Initial residual = 0.000556275, Final residual = 8.08375e-06, No Iterations 1
DILUPBiCG:  Solving for linUz, Initial residual = 0.000959601, Final residual = 6.56569e-06, No Iterations 1
GAMG:  Solving for linP, Initial residual = 0.0372113, Final residual = 0.000261506, No Iterations 2
GAMG:  Solving for linP, Initial residual = 0.00140527, Final residual = 8.01223e-06, No Iterations 4
GAMG:  Solving for linP, Initial residual = 0.000487103, Final residual = 3.53645e-06, No Iterations 3
Adjoint continuity errors : sum local = 4.19398e-10, global = -3.28341e-11, cumulative = 6.30403e-11
GAMG:  Solving for linP, Initial residual = 0.00144417, Final residual = 7.01364e-06, No Iterations 3
GAMG:  Solving for linP, Initial residual = 0.00016686, Final residual = 7.01657e-07, No Iterations 4
GAMG:  Solving for linP, Initial residual = 6.31858e-05, Final residual = 5.48626e-07, No Iterations 3
Adjoint continuity errors : sum local = 6.51855e-11, global = -6.51324e-13, cumulative = 6.2389e-11
ExecutionTime = 6.63 s  ClockTime = 6 s

End

