/*---------------------------------------------------------------------------*\
| =========                 |                                                 |
| \\      /  F ield         | OpenFOAM: The Open Source CFD Toolbox           |
|  \\    /   O peration     | Version:  2.3.1                                 |
|   \\  /    A nd           | Web:      www.OpenFOAM.org                      |
|    \\/     M anipulation  |                                                 |
\*---------------------------------------------------------------------------*/
Build  : 2.3.1-262087cdf8db
Exec   : pimpleDyMFoam
Date   : Jun 06 2023
Time   : 01:52:32
Host   : "jcosson-VirtualBox"
PID    : 14075
Case   : /home/jcosson/workspace/henersj_shootingdata/calcs/moderate_deformed/primal/100_intervals_05-06-23/sweep46/interval48
nProcs : 1
sigFpe : Enabling floating point exception trapping (FOAM_SIGFPE).
fileModificationChecking : Monitoring run-time modified files using timeStampMaster
allowSystemOperations : Allowing user-supplied system call operations

// * * * * * * * * * * * * * * * * * * * * * * * * * * * * * * * * * * * * * //
Create time

Create mesh for time = 0.447

Selecting dynamicFvMesh dynamicMotionSolverFvMesh
Selecting motion solver: displacementLaplacian
Selecting motion diffusion: quadratic
Selecting motion diffusion: quadratic
Selecting motion diffusion: inverseDistance

PIMPLE: no residual control data found. Calculations will employ 3 corrector loops

Reading field p

Reading field U

Reading/calculating face flux field phi

Selecting incompressible transport model Newtonian
Selecting turbulence model type RASModel
Selecting RAS turbulence model kOmegaSST
kOmegaSSTCoeffs
{
    alphaK1         0.85034;
    alphaK2         1;
    alphaOmega1     0.5;
    alphaOmega2     0.85616;
    gamma1          0.5532;
    gamma2          0.4403;
    beta1           0.075;
    beta2           0.0828;
    betaStar        0.09;
    a1              0.31;
    c1              10;
    Cmu             0.09;
    b1              1;
    F3              false;
}

Reading/calculating face velocity Uf

No finite volume options present

Courant Number mean: 0.278398 max: 0.616514

Starting time loop

Courant Number mean: 0.278398 max: 0.616514
Time = 0.448

GAMG:  Solving for cellDisplacementx, Initial residual = 0, Final residual = 0, No Iterations 0
GAMG:  Solving for cellDisplacementy, Initial residual = 0, Final residual = 0, No Iterations 0
GAMG:  Solving for cellDisplacementz, Initial residual = 0, Final residual = 0, No Iterations 0
PIMPLE: iteration 1
DILUPBiCG:  Solving for Ux, Initial residual = 0.00936242, Final residual = 4.12858e-05, No Iterations 1
DILUPBiCG:  Solving for Uy, Initial residual = 0.00150015, Final residual = 7.12003e-06, No Iterations 1
DILUPBiCG:  Solving for Uz, Initial residual = 0.0109552, Final residual = 2.57221e-05, No Iterations 1
GAMG:  Solving for p, Initial residual = 0.132495, Final residual = 0.000795902, No Iterations 3
GAMG:  Solving for p, Initial residual = 0.0211605, Final residual = 0.000124208, No Iterations 4
GAMG:  Solving for p, Initial residual = 0.00847477, Final residual = 4.38073e-05, No Iterations 4
time step continuity errors : sum local = 1.83718e-07, global = 4.32557e-08, cumulative = 4.32557e-08
GAMG:  Solving for p, Initial residual = 0.065024, Final residual = 0.00034309, No Iterations 3
GAMG:  Solving for p, Initial residual = 0.0102683, Final residual = 5.73851e-05, No Iterations 4
GAMG:  Solving for p, Initial residual = 0.00422741, Final residual = 3.10469e-05, No Iterations 4
time step continuity errors : sum local = 1.30566e-07, global = 1.58802e-08, cumulative = 5.91359e-08
PIMPLE: iteration 2
DILUPBiCG:  Solving for Ux, Initial residual = 0.00229982, Final residual = 1.64801e-05, No Iterations 1
DILUPBiCG:  Solving for Uy, Initial residual = 0.000379543, Final residual = 7.36641e-06, No Iterations 1
DILUPBiCG:  Solving for Uz, Initial residual = 0.00357956, Final residual = 1.91487e-05, No Iterations 1
GAMG:  Solving for p, Initial residual = 0.0657778, Final residual = 0.000501778, No Iterations 5
GAMG:  Solving for p, Initial residual = 0.0230952, Final residual = 0.000216739, No Iterations 7
GAMG:  Solving for p, Initial residual = 0.00612059, Final residual = 5.83453e-05, No Iterations 16
time step continuity errors : sum local = 2.14529e-07, global = 6.11652e-08, cumulative = 1.20301e-07
GAMG:  Solving for p, Initial residual = 0.0350022, Final residual = 0.000304467, No Iterations 4
GAMG:  Solving for p, Initial residual = 0.0105624, Final residual = 9.71504e-05, No Iterations 8
GAMG:  Solving for p, Initial residual = 0.00301651, Final residual = 2.92672e-05, No Iterations 14
time step continuity errors : sum local = 1.08015e-07, global = 3.14194e-08, cumulative = 1.5172e-07
PIMPLE: iteration 3
DILUPBiCG:  Solving for Ux, Initial residual = 0.000318609, Final residual = 3.90811e-06, No Iterations 1
DILUPBiCG:  Solving for Uy, Initial residual = 6.29098e-05, Final residual = 8.21516e-07, No Iterations 1
DILUPBiCG:  Solving for Uz, Initial residual = 0.00222203, Final residual = 3.21964e-07, No Iterations 2
GAMG:  Solving for p, Initial residual = 0.0707452, Final residual = 0.000410447, No Iterations 5
GAMG:  Solving for p, Initial residual = 0.0174385, Final residual = 0.000164011, No Iterations 12
GAMG:  Solving for p, Initial residual = 0.0090668, Final residual = 7.97395e-05, No Iterations 10
time step continuity errors : sum local = 3.15483e-07, global = 8.5594e-08, cumulative = 2.37314e-07
GAMG:  Solving for p, Initial residual = 0.0054498, Final residual = 5.07803e-05, No Iterations 7
GAMG:  Solving for p, Initial residual = 0.00316935, Final residual = 3.12594e-05, No Iterations 4
GAMG:  Solving for p, Initial residual = 0.000982301, Final residual = 8.84822e-07, No Iterations 46
time step continuity errors : sum local = 3.47036e-09, global = -1.0274e-09, cumulative = 2.36287e-07
DILUPBiCG:  Solving for omega, Initial residual = 0.00113551, Final residual = 1.53858e-06, No Iterations 1
DILUPBiCG:  Solving for k, Initial residual = 0.00578996, Final residual = 8.92678e-07, No Iterations 2
ExecutionTime = 16.39 s  ClockTime = 16 s

End

