/*---------------------------------------------------------------------------*\
| =========                 |                                                 |
| \\      /  F ield         | OpenFOAM: The Open Source CFD Toolbox           |
|  \\    /   O peration     | Version:  2.3.1                                 |
|   \\  /    A nd           | Web:      www.OpenFOAM.org                      |
|    \\/     M anipulation  |                                                 |
\*---------------------------------------------------------------------------*/
Build  : 2.3.1-262087cdf8db
Exec   : pimpleDyMFoam
Date   : Jun 06 2023
Time   : 10:46:46
Host   : "jcosson-VirtualBox"
PID    : 7173
Case   : /home/jcosson/workspace/henersj_shootingdata/calcs/moderate_deformed/primal/28_intervals_05-06-23/sweep7/interval18
nProcs : 1
sigFpe : Enabling floating point exception trapping (FOAM_SIGFPE).
fileModificationChecking : Monitoring run-time modified files using timeStampMaster
allowSystemOperations : Allowing user-supplied system call operations

// * * * * * * * * * * * * * * * * * * * * * * * * * * * * * * * * * * * * * //
Create time

Create mesh for time = 0.461

Selecting dynamicFvMesh dynamicMotionSolverFvMesh
Selecting motion solver: displacementLaplacian
Selecting motion diffusion: quadratic
Selecting motion diffusion: quadratic
Selecting motion diffusion: inverseDistance

PIMPLE: no residual control data found. Calculations will employ 3 corrector loops

Reading field p

Reading field U

Reading/calculating face flux field phi

Selecting incompressible transport model Newtonian
Selecting turbulence model type RASModel
Selecting RAS turbulence model kOmegaSST
kOmegaSSTCoeffs
{
    alphaK1         0.85034;
    alphaK2         1;
    alphaOmega1     0.5;
    alphaOmega2     0.85616;
    gamma1          0.5532;
    gamma2          0.4403;
    beta1           0.075;
    beta2           0.0828;
    betaStar        0.09;
    a1              0.31;
    c1              10;
    Cmu             0.09;
    b1              1;
    F3              false;
}

Reading/calculating face velocity Uf

No finite volume options present

Courant Number mean: 0.258952 max: 0.571967

Starting time loop

Courant Number mean: 0.258952 max: 0.571967
Time = 0.462

GAMG:  Solving for cellDisplacementx, Initial residual = 0, Final residual = 0, No Iterations 0
GAMG:  Solving for cellDisplacementy, Initial residual = 0, Final residual = 0, No Iterations 0
GAMG:  Solving for cellDisplacementz, Initial residual = 0, Final residual = 0, No Iterations 0
PIMPLE: iteration 1
DILUPBiCG:  Solving for Ux, Initial residual = 0.0273163, Final residual = 0.000111538, No Iterations 1
DILUPBiCG:  Solving for Uy, Initial residual = 0.00434557, Final residual = 1.01805e-05, No Iterations 1
DILUPBiCG:  Solving for Uz, Initial residual = 0.0147087, Final residual = 3.97422e-05, No Iterations 1
GAMG:  Solving for p, Initial residual = 0.154078, Final residual = 0.00132985, No Iterations 6
GAMG:  Solving for p, Initial residual = 0.0186737, Final residual = 0.000179977, No Iterations 18
GAMG:  Solving for p, Initial residual = 0.00767633, Final residual = 7.03402e-05, No Iterations 12
time step continuity errors : sum local = 6.55942e-07, global = 1.97747e-07, cumulative = 1.97747e-07
GAMG:  Solving for p, Initial residual = 0.0626458, Final residual = 0.00042481, No Iterations 6
GAMG:  Solving for p, Initial residual = 0.00931865, Final residual = 8.49223e-05, No Iterations 16
GAMG:  Solving for p, Initial residual = 0.00399519, Final residual = 3.42429e-05, No Iterations 12
time step continuity errors : sum local = 3.17768e-07, global = 9.50466e-08, cumulative = 2.92794e-07
PIMPLE: iteration 2
DILUPBiCG:  Solving for Ux, Initial residual = 0.00854653, Final residual = 4.18804e-05, No Iterations 1
DILUPBiCG:  Solving for Uy, Initial residual = 0.00142884, Final residual = 3.9008e-06, No Iterations 1
DILUPBiCG:  Solving for Uz, Initial residual = 0.00399914, Final residual = 1.26396e-05, No Iterations 1
GAMG:  Solving for p, Initial residual = 0.0643376, Final residual = 0.000419219, No Iterations 4
GAMG:  Solving for p, Initial residual = 0.0105947, Final residual = 9.6213e-05, No Iterations 14
GAMG:  Solving for p, Initial residual = 0.00487899, Final residual = 4.42185e-05, No Iterations 8
time step continuity errors : sum local = 3.46729e-07, global = -1.10269e-07, cumulative = 1.82525e-07
GAMG:  Solving for p, Initial residual = 0.0325212, Final residual = 0.000177192, No Iterations 4
GAMG:  Solving for p, Initial residual = 0.00517288, Final residual = 4.4274e-05, No Iterations 12
GAMG:  Solving for p, Initial residual = 0.00230941, Final residual = 1.99803e-05, No Iterations 8
time step continuity errors : sum local = 1.57464e-07, global = -4.7689e-08, cumulative = 1.34836e-07
PIMPLE: iteration 3
DILUPBiCG:  Solving for Ux, Initial residual = 0.0023243, Final residual = 6.34975e-06, No Iterations 2
DILUPBiCG:  Solving for Uy, Initial residual = 0.000385331, Final residual = 6.97767e-06, No Iterations 1
DILUPBiCG:  Solving for Uz, Initial residual = 0.00575462, Final residual = 1.50773e-06, No Iterations 2
GAMG:  Solving for p, Initial residual = 0.0423728, Final residual = 0.000338939, No Iterations 5
GAMG:  Solving for p, Initial residual = 0.00966768, Final residual = 8.47322e-05, No Iterations 15
GAMG:  Solving for p, Initial residual = 0.00452138, Final residual = 3.77094e-05, No Iterations 10
time step continuity errors : sum local = 3.29629e-07, global = -8.61708e-08, cumulative = 4.86648e-08
GAMG:  Solving for p, Initial residual = 0.00293396, Final residual = 2.87138e-05, No Iterations 18
GAMG:  Solving for p, Initial residual = 0.00166202, Final residual = 1.56592e-05, No Iterations 4
GAMG:  Solving for p, Initial residual = 0.000628543, Final residual = 8.75669e-07, No Iterations 40
time step continuity errors : sum local = 7.64796e-09, global = 2.27411e-09, cumulative = 5.09389e-08
DILUPBiCG:  Solving for omega, Initial residual = 0.000630213, Final residual = 1.2928e-06, No Iterations 1
DILUPBiCG:  Solving for k, Initial residual = 0.00483707, Final residual = 1.27898e-06, No Iterations 2
ExecutionTime = 18.55 s  ClockTime = 18 s

Courant Number mean: 0.255198 max: 0.56301
Time = 0.463

GAMG:  Solving for cellDisplacementx, Initial residual = 0, Final residual = 0, No Iterations 0
GAMG:  Solving for cellDisplacementy, Initial residual = 0, Final residual = 0, No Iterations 0
GAMG:  Solving for cellDisplacementz, Initial residual = 0, Final residual = 0, No Iterations 0
PIMPLE: iteration 1
DILUPBiCG:  Solving for Ux, Initial residual = 0.029885, Final residual = 0.000123118, No Iterations 1
DILUPBiCG:  Solving for Uy, Initial residual = 0.00474755, Final residual = 1.10745e-05, No Iterations 1
DILUPBiCG:  Solving for Uz, Initial residual = 0.0132224, Final residual = 3.66344e-05, No Iterations 1
GAMG:  Solving for p, Initial residual = 0.132624, Final residual = 0.00130354, No Iterations 6
GAMG:  Solving for p, Initial residual = 0.0152338, Final residual = 0.000148958, No Iterations 20
GAMG:  Solving for p, Initial residual = 0.00642224, Final residual = 5.84161e-05, No Iterations 12
time step continuity errors : sum local = 5.85032e-07, global = 1.76163e-07, cumulative = 2.27102e-07
GAMG:  Solving for p, Initial residual = 0.0539881, Final residual = 0.000413801, No Iterations 6
GAMG:  Solving for p, Initial residual = 0.0076291, Final residual = 7.0671e-05, No Iterations 18
GAMG:  Solving for p, Initial residual = 0.0033325, Final residual = 2.73573e-05, No Iterations 12
time step continuity errors : sum local = 2.72581e-07, global = 8.06892e-08, cumulative = 3.07791e-07
PIMPLE: iteration 2
DILUPBiCG:  Solving for Ux, Initial residual = 0.00926878, Final residual = 4.73883e-05, No Iterations 1
DILUPBiCG:  Solving for Uy, Initial residual = 0.00155227, Final residual = 4.07983e-06, No Iterations 1
DILUPBiCG:  Solving for Uz, Initial residual = 0.00390306, Final residual = 1.25374e-05, No Iterations 1
GAMG:  Solving for p, Initial residual = 0.0550205, Final residual = 0.000435168, No Iterations 4
GAMG:  Solving for p, Initial residual = 0.00870931, Final residual = 8.26383e-05, No Iterations 16
GAMG:  Solving for p, Initial residual = 0.00412734, Final residual = 3.929e-05, No Iterations 8
time step continuity errors : sum local = 3.3027e-07, global = -1.14481e-07, cumulative = 1.9331e-07
GAMG:  Solving for p, Initial residual = 0.0278804, Final residual = 0.000182787, No Iterations 4
GAMG:  Solving for p, Initial residual = 0.00417082, Final residual = 3.71577e-05, No Iterations 14
GAMG:  Solving for p, Initial residual = 0.00189876, Final residual = 1.75158e-05, No Iterations 8
time step continuity errors : sum local = 1.48079e-07, global = -4.69965e-08, cumulative = 1.46313e-07
PIMPLE: iteration 3
DILUPBiCG:  Solving for Ux, Initial residual = 0.00248634, Final residual = 1.79673e-06, No Iterations 2
DILUPBiCG:  Solving for Uy, Initial residual = 0.000412661, Final residual = 7.14778e-06, No Iterations 1
DILUPBiCG:  Solving for Uz, Initial residual = 0.00603857, Final residual = 1.63606e-06, No Iterations 2
GAMG:  Solving for p, Initial residual = 0.0400534, Final residual = 0.000335577, No Iterations 5
GAMG:  Solving for p, Initial residual = 0.00917936, Final residual = 8.38385e-05, No Iterations 15
GAMG:  Solving for p, Initial residual = 0.0043255, Final residual = 3.75896e-05, No Iterations 10
time step continuity errors : sum local = 3.52957e-07, global = -9.22586e-08, cumulative = 5.40549e-08
GAMG:  Solving for p, Initial residual = 0.002735, Final residual = 2.51984e-05, No Iterations 20
GAMG:  Solving for p, Initial residual = 0.00158165, Final residual = 1.36934e-05, No Iterations 4
GAMG:  Solving for p, Initial residual = 0.00059668, Final residual = 8.66604e-07, No Iterations 38
time step continuity errors : sum local = 8.12967e-09, global = 2.40789e-09, cumulative = 5.64628e-08
DILUPBiCG:  Solving for omega, Initial residual = 0.000589889, Final residual = 1.37491e-06, No Iterations 1
DILUPBiCG:  Solving for k, Initial residual = 0.00484032, Final residual = 1.35053e-06, No Iterations 2
ExecutionTime = 35.88 s  ClockTime = 36 s

Courant Number mean: 0.251182 max: 0.553436
Time = 0.464

GAMG:  Solving for cellDisplacementx, Initial residual = 0, Final residual = 0, No Iterations 0
GAMG:  Solving for cellDisplacementy, Initial residual = 0, Final residual = 0, No Iterations 0
GAMG:  Solving for cellDisplacementz, Initial residual = 0, Final residual = 0, No Iterations 0
PIMPLE: iteration 1
DILUPBiCG:  Solving for Ux, Initial residual = 0.0324302, Final residual = 0.000134404, No Iterations 1
DILUPBiCG:  Solving for Uy, Initial residual = 0.00516162, Final residual = 1.20353e-05, No Iterations 1
DILUPBiCG:  Solving for Uz, Initial residual = 0.0130303, Final residual = 3.59982e-05, No Iterations 1
GAMG:  Solving for p, Initial residual = 0.130644, Final residual = 0.0012608, No Iterations 6
GAMG:  Solving for p, Initial residual = 0.0148755, Final residual = 0.000145615, No Iterations 20
GAMG:  Solving for p, Initial residual = 0.00631917, Final residual = 5.72398e-05, No Iterations 12
time step continuity errors : sum local = 6.10483e-07, global = 1.8389e-07, cumulative = 2.40353e-07
GAMG:  Solving for p, Initial residual = 0.0534794, Final residual = 0.000402814, No Iterations 6
GAMG:  Solving for p, Initial residual = 0.00747117, Final residual = 6.91528e-05, No Iterations 18
GAMG:  Solving for p, Initial residual = 0.00328283, Final residual = 2.70334e-05, No Iterations 12
time step continuity errors : sum local = 2.86999e-07, global = 8.5122e-08, cumulative = 3.25475e-07
PIMPLE: iteration 2
DILUPBiCG:  Solving for Ux, Initial residual = 0.00997662, Final residual = 5.27574e-05, No Iterations 1
DILUPBiCG:  Solving for Uy, Initial residual = 0.00167475, Final residual = 4.26989e-06, No Iterations 1
DILUPBiCG:  Solving for Uz, Initial residual = 0.00384027, Final residual = 1.25144e-05, No Iterations 1
GAMG:  Solving for p, Initial residual = 0.0543604, Final residual = 0.000444609, No Iterations 4
GAMG:  Solving for p, Initial residual = 0.00857323, Final residual = 8.35579e-05, No Iterations 16
GAMG:  Solving for p, Initial residual = 0.00405044, Final residual = 3.94305e-05, No Iterations 8
time step continuity errors : sum local = 3.53312e-07, global = -1.20098e-07, cumulative = 2.05377e-07
GAMG:  Solving for p, Initial residual = 0.0276006, Final residual = 0.000187551, No Iterations 4
GAMG:  Solving for p, Initial residual = 0.00410814, Final residual = 3.75981e-05, No Iterations 14
GAMG:  Solving for p, Initial residual = 0.00185911, Final residual = 1.78043e-05, No Iterations 8
time step continuity errors : sum local = 1.60454e-07, global = -4.99106e-08, cumulative = 1.55466e-07
PIMPLE: iteration 3
DILUPBiCG:  Solving for Ux, Initial residual = 0.00264593, Final residual = 1.00023e-06, No Iterations 2
DILUPBiCG:  Solving for Uy, Initial residual = 0.000440474, Final residual = 7.24637e-06, No Iterations 1
DILUPBiCG:  Solving for Uz, Initial residual = 0.00631518, Final residual = 1.79226e-06, No Iterations 2
GAMG:  Solving for p, Initial residual = 0.039816, Final residual = 0.000334697, No Iterations 5
GAMG:  Solving for p, Initial residual = 0.00910949, Final residual = 8.41215e-05, No Iterations 15
GAMG:  Solving for p, Initial residual = 0.00431365, Final residual = 3.83966e-05, No Iterations 10
time step continuity errors : sum local = 3.8465e-07, global = -1.00625e-07, cumulative = 5.48417e-08
GAMG:  Solving for p, Initial residual = 0.0026739, Final residual = 2.47186e-05, No Iterations 20
GAMG:  Solving for p, Initial residual = 0.00154115, Final residual = 1.33946e-05, No Iterations 4
GAMG:  Solving for p, Initial residual = 0.000586061, Final residual = 9.97565e-07, No Iterations 36
time step continuity errors : sum local = 9.9802e-09, global = 2.94282e-09, cumulative = 5.77846e-08
DILUPBiCG:  Solving for omega, Initial residual = 0.000552563, Final residual = 1.52032e-06, No Iterations 1
DILUPBiCG:  Solving for k, Initial residual = 0.0048333, Final residual = 1.42614e-06, No Iterations 2
ExecutionTime = 51.79 s  ClockTime = 52 s

End

