/*---------------------------------------------------------------------------*\
| =========                 |                                                 |
| \\      /  F ield         | OpenFOAM: The Open Source CFD Toolbox           |
|  \\    /   O peration     | Version:  2.3.1                                 |
|   \\  /    A nd           | Web:      www.OpenFOAM.org                      |
|    \\/     M anipulation  |                                                 |
\*---------------------------------------------------------------------------*/
Build  : 2.3.1-262087cdf8db
Exec   : linearisedPimpleDyMFoam
Date   : Jun 06 2023
Time   : 02:03:30
Host   : "jcosson-VirtualBox"
PID    : 19923
Case   : /home/jcosson/workspace/henersj_shootingdata/calcs/moderate_deformed/primal/100_intervals_05-06-23/sweep50/interval58
nProcs : 1
sigFpe : Enabling floating point exception trapping (FOAM_SIGFPE).
fileModificationChecking : Monitoring run-time modified files using timeStampMaster
allowSystemOperations : Allowing user-supplied system call operations

// * * * * * * * * * * * * * * * * * * * * * * * * * * * * * * * * * * * * * //
Create time

Create mesh for time = 0.457

Selecting dynamicFvMesh dynamicMotionSolverFvMesh
Selecting motion solver: displacementLaplacian
Selecting motion diffusion: quadratic
Selecting motion diffusion: quadratic
Selecting motion diffusion: inverseDistance
Reading field linP

Reading field linU

starte createPhia.H

Reading/calculating face flux field linPhi

Adjungierte Interpolation durchgefuehrt

createPhia.H verlassen

setRefCell ausgefuehrt

No finite volume options present


PIMPLE: no residual control data found. Calculations will employ 3 corrector loops


Starting time loop

Time = 0.458

Reading field p

Reading field U

Read primal fluxes 

Reading primal face flux fields phi/meshPhi

Created primal fluxes 

Selecting incompressible transport model Newtonian
singlePhaseTransportModel gewaehlt 

Selecting turbulence model type RASModel
Selecting RAS turbulence model kOmegaSST
kOmegaSSTCoeffs
{
    alphaK1         0.85034;
    alphaK2         1;
    alphaOmega1     0.5;
    alphaOmega2     0.85616;
    gamma1          0.5532;
    gamma2          0.4403;
    beta1           0.075;
    beta2           0.0828;
    betaStar        0.09;
    a1              0.31;
    c1              10;
    Cmu             0.09;
    b1              1;
    F3              false;
}

autoPtr ausgefuehrt

Reading/calculating face velocity Uf

Init adjoint face velocity linUf

Courant Number mean: 0.268767 max: 0.597829
Adjoint Courant Number mean: 0.000126183 max: 0.00209385
GAMG:  Solving for cellDisplacementx, Initial residual = 0, Final residual = 0, No Iterations 0
GAMG:  Solving for cellDisplacementy, Initial residual = 0, Final residual = 0, No Iterations 0
GAMG:  Solving for cellDisplacementz, Initial residual = 0, Final residual = 0, No Iterations 0
PIMPLE: iteration 1
DILUPBiCG:  Solving for linUx, Initial residual = 0.0464463, Final residual = 0.000177382, No Iterations 1
DILUPBiCG:  Solving for linUy, Initial residual = 0.0936897, Final residual = 0.000264598, No Iterations 1
DILUPBiCG:  Solving for linUz, Initial residual = 0.187145, Final residual = 0.000482717, No Iterations 1
GAMG:  Solving for linP, Initial residual = 1, Final residual = 0.00738662, No Iterations 2
GAMG:  Solving for linP, Initial residual = 0.0116576, Final residual = 7.58372e-05, No Iterations 4
GAMG:  Solving for linP, Initial residual = 0.00376445, Final residual = 3.26264e-05, No Iterations 3
Adjoint continuity errors : sum local = 8.31561e-09, global = -2.1435e-10, cumulative = -2.1435e-10
GAMG:  Solving for linP, Initial residual = 0.0450684, Final residual = 0.000225809, No Iterations 3
GAMG:  Solving for linP, Initial residual = 0.00357822, Final residual = 1.79403e-05, No Iterations 4
GAMG:  Solving for linP, Initial residual = 0.00116502, Final residual = 1.09002e-05, No Iterations 3
Adjoint continuity errors : sum local = 2.63287e-09, global = -7.49717e-11, cumulative = -2.89321e-10
PIMPLE: iteration 2
DILUPBiCG:  Solving for linUx, Initial residual = 0.00505869, Final residual = 3.78797e-05, No Iterations 1
DILUPBiCG:  Solving for linUy, Initial residual = 0.0104011, Final residual = 5.52108e-05, No Iterations 1
DILUPBiCG:  Solving for linUz, Initial residual = 0.0178595, Final residual = 5.83406e-05, No Iterations 1
GAMG:  Solving for linP, Initial residual = 0.0375983, Final residual = 0.000102371, No Iterations 3
GAMG:  Solving for linP, Initial residual = 0.00167896, Final residual = 1.43884e-05, No Iterations 3
GAMG:  Solving for linP, Initial residual = 0.000475797, Final residual = 2.13366e-06, No Iterations 4
Adjoint continuity errors : sum local = 5.33764e-10, global = -5.63442e-11, cumulative = -3.45666e-10
GAMG:  Solving for linP, Initial residual = 0.00246865, Final residual = 1.43641e-05, No Iterations 3
GAMG:  Solving for linP, Initial residual = 0.000353292, Final residual = 3.00035e-06, No Iterations 3
GAMG:  Solving for linP, Initial residual = 0.000106958, Final residual = 5.60551e-07, No Iterations 4
Adjoint continuity errors : sum local = 1.40037e-10, global = -1.30028e-11, cumulative = -3.58668e-10
PIMPLE: iteration 3
DILUPBiCG:  Solving for linUx, Initial residual = 0.00088353, Final residual = 5.29048e-06, No Iterations 1
DILUPBiCG:  Solving for linUy, Initial residual = 0.00172491, Final residual = 3.21936e-07, No Iterations 2
DILUPBiCG:  Solving for linUz, Initial residual = 0.00271516, Final residual = 1.73355e-07, No Iterations 2
GAMG:  Solving for linP, Initial residual = 0.0389103, Final residual = 0.000266008, No Iterations 2
GAMG:  Solving for linP, Initial residual = 0.0010595, Final residual = 9.36297e-06, No Iterations 3
GAMG:  Solving for linP, Initial residual = 0.000331291, Final residual = 1.29689e-06, No Iterations 4
Adjoint continuity errors : sum local = 3.3458e-10, global = 3.09843e-11, cumulative = -3.27684e-10
GAMG:  Solving for linP, Initial residual = 0.00249686, Final residual = 9.83927e-06, No Iterations 3
GAMG:  Solving for linP, Initial residual = 0.000169096, Final residual = 1.41658e-06, No Iterations 3
GAMG:  Solving for linP, Initial residual = 5.45038e-05, Final residual = 5.78998e-07, No Iterations 3
Adjoint continuity errors : sum local = 1.4991e-10, global = 4.93128e-12, cumulative = -3.22753e-10
ExecutionTime = 12.4 s  ClockTime = 13 s

End

