/*---------------------------------------------------------------------------*\
| =========                 |                                                 |
| \\      /  F ield         | OpenFOAM: The Open Source CFD Toolbox           |
|  \\    /   O peration     | Version:  2.3.1                                 |
|   \\  /    A nd           | Web:      www.OpenFOAM.org                      |
|    \\/     M anipulation  |                                                 |
\*---------------------------------------------------------------------------*/
Build  : 2.3.1-262087cdf8db
Exec   : pimpleDyMFoam
Date   : Jun 06 2023
Time   : 02:02:16
Host   : "jcosson-VirtualBox"
PID    : 18893
Case   : /home/jcosson/workspace/henersj_shootingdata/calcs/moderate_deformed/primal/100_intervals_05-06-23/sweep50/interval71
nProcs : 1
sigFpe : Enabling floating point exception trapping (FOAM_SIGFPE).
fileModificationChecking : Monitoring run-time modified files using timeStampMaster
allowSystemOperations : Allowing user-supplied system call operations

// * * * * * * * * * * * * * * * * * * * * * * * * * * * * * * * * * * * * * //
Create time

Create mesh for time = 0.47

Selecting dynamicFvMesh dynamicMotionSolverFvMesh
Selecting motion solver: displacementLaplacian
Selecting motion diffusion: quadratic
Selecting motion diffusion: quadratic
Selecting motion diffusion: inverseDistance

PIMPLE: no residual control data found. Calculations will employ 3 corrector loops

Reading field p

Reading field U

Reading/calculating face flux field phi

Selecting incompressible transport model Newtonian
Selecting turbulence model type RASModel
Selecting RAS turbulence model kOmegaSST
kOmegaSSTCoeffs
{
    alphaK1         0.85034;
    alphaK2         1;
    alphaOmega1     0.5;
    alphaOmega2     0.85616;
    gamma1          0.5532;
    gamma2          0.4403;
    beta1           0.075;
    beta2           0.0828;
    betaStar        0.09;
    a1              0.31;
    c1              10;
    Cmu             0.09;
    b1              1;
    F3              false;
}

Reading/calculating face velocity Uf

No finite volume options present

Courant Number mean: 0.217103 max: 0.481205

Starting time loop

Courant Number mean: 0.217103 max: 0.481205
Time = 0.471

GAMG:  Solving for cellDisplacementx, Initial residual = 0, Final residual = 0, No Iterations 0
GAMG:  Solving for cellDisplacementy, Initial residual = 0, Final residual = 0, No Iterations 0
GAMG:  Solving for cellDisplacementz, Initial residual = 0, Final residual = 0, No Iterations 0
PIMPLE: iteration 1
DILUPBiCG:  Solving for Ux, Initial residual = 0.0492387, Final residual = 0.0002048, No Iterations 1
DILUPBiCG:  Solving for Uy, Initial residual = 0.00805628, Final residual = 1.87133e-05, No Iterations 1
DILUPBiCG:  Solving for Uz, Initial residual = 0.0127019, Final residual = 2.96349e-05, No Iterations 1
GAMG:  Solving for p, Initial residual = 0.12999, Final residual = 0.00102445, No Iterations 6
GAMG:  Solving for p, Initial residual = 0.0150494, Final residual = 0.000149621, No Iterations 18
GAMG:  Solving for p, Initial residual = 0.00649823, Final residual = 5.93102e-05, No Iterations 12
time step continuity errors : sum local = 8.43456e-07, global = 2.54047e-07, cumulative = 2.54047e-07
GAMG:  Solving for p, Initial residual = 0.0548226, Final residual = 0.000343814, No Iterations 6
GAMG:  Solving for p, Initial residual = 0.00759882, Final residual = 7.15119e-05, No Iterations 16
GAMG:  Solving for p, Initial residual = 0.00337904, Final residual = 2.94524e-05, No Iterations 12
time step continuity errors : sum local = 4.18459e-07, global = 1.25249e-07, cumulative = 3.79295e-07
PIMPLE: iteration 2
DILUPBiCG:  Solving for Ux, Initial residual = 0.0144197, Final residual = 8.40227e-05, No Iterations 1
DILUPBiCG:  Solving for Uy, Initial residual = 0.0024878, Final residual = 5.74066e-06, No Iterations 1
DILUPBiCG:  Solving for Uz, Initial residual = 0.00362172, Final residual = 1.26336e-05, No Iterations 1
GAMG:  Solving for p, Initial residual = 0.0553229, Final residual = 0.000473312, No Iterations 4
GAMG:  Solving for p, Initial residual = 0.00899237, Final residual = 8.50622e-05, No Iterations 16
GAMG:  Solving for p, Initial residual = 0.00410574, Final residual = 3.97341e-05, No Iterations 8
time step continuity errors : sum local = 4.80209e-07, global = -1.45234e-07, cumulative = 2.34061e-07
GAMG:  Solving for p, Initial residual = 0.0283995, Final residual = 0.000205627, No Iterations 4
GAMG:  Solving for p, Initial residual = 0.00444113, Final residual = 3.9055e-05, No Iterations 14
GAMG:  Solving for p, Initial residual = 0.00192113, Final residual = 1.88921e-05, No Iterations 8
time step continuity errors : sum local = 2.29581e-07, global = -6.44426e-08, cumulative = 1.69618e-07
PIMPLE: iteration 3
DILUPBiCG:  Solving for Ux, Initial residual = 0.00359335, Final residual = 1.79897e-06, No Iterations 2
DILUPBiCG:  Solving for Uy, Initial residual = 0.000619356, Final residual = 6.85058e-06, No Iterations 1
DILUPBiCG:  Solving for Uz, Initial residual = 0.00719027, Final residual = 3.01571e-06, No Iterations 2
GAMG:  Solving for p, Initial residual = 0.0402578, Final residual = 0.000327584, No Iterations 5
GAMG:  Solving for p, Initial residual = 0.00905324, Final residual = 8.80489e-05, No Iterations 13
GAMG:  Solving for p, Initial residual = 0.00436782, Final residual = 3.5948e-05, No Iterations 12
time step continuity errors : sum local = 4.87823e-07, global = -1.42164e-07, cumulative = 2.74543e-08
GAMG:  Solving for p, Initial residual = 0.00247239, Final residual = 2.43349e-05, No Iterations 18
GAMG:  Solving for p, Initial residual = 0.00137087, Final residual = 1.30356e-05, No Iterations 4
GAMG:  Solving for p, Initial residual = 0.000548415, Final residual = 9.73398e-07, No Iterations 36
time step continuity errors : sum local = 1.31481e-08, global = 3.86949e-09, cumulative = 3.13237e-08
DILUPBiCG:  Solving for omega, Initial residual = 0.000501391, Final residual = 6.24211e-07, No Iterations 1
DILUPBiCG:  Solving for k, Initial residual = 0.00461708, Final residual = 1.73869e-06, No Iterations 2
ExecutionTime = 17.83 s  ClockTime = 18 s

End

