/*---------------------------------------------------------------------------*\
| =========                 |                                                 |
| \\      /  F ield         | OpenFOAM: The Open Source CFD Toolbox           |
|  \\    /   O peration     | Version:  2.3.1                                 |
|   \\  /    A nd           | Web:      www.OpenFOAM.org                      |
|    \\/     M anipulation  |                                                 |
\*---------------------------------------------------------------------------*/
Build  : 2.3.1-262087cdf8db
Exec   : pimpleDyMFoam
Date   : Jun 06 2023
Time   : 01:29:10
Host   : "jcosson-VirtualBox"
PID    : 1958
Case   : /home/jcosson/workspace/henersj_shootingdata/calcs/moderate_deformed/primal/100_intervals_05-06-23/sweep37/interval45
nProcs : 1
sigFpe : Enabling floating point exception trapping (FOAM_SIGFPE).
fileModificationChecking : Monitoring run-time modified files using timeStampMaster
allowSystemOperations : Allowing user-supplied system call operations

// * * * * * * * * * * * * * * * * * * * * * * * * * * * * * * * * * * * * * //
Create time

Create mesh for time = 0.444

Selecting dynamicFvMesh dynamicMotionSolverFvMesh
Selecting motion solver: displacementLaplacian
Selecting motion diffusion: quadratic
Selecting motion diffusion: quadratic
Selecting motion diffusion: inverseDistance

PIMPLE: no residual control data found. Calculations will employ 3 corrector loops

Reading field p

Reading field U

Reading/calculating face flux field phi

Selecting incompressible transport model Newtonian
Selecting turbulence model type RASModel
Selecting RAS turbulence model kOmegaSST
kOmegaSSTCoeffs
{
    alphaK1         0.85034;
    alphaK2         1;
    alphaOmega1     0.5;
    alphaOmega2     0.85616;
    gamma1          0.5532;
    gamma2          0.4403;
    beta1           0.075;
    beta2           0.0828;
    betaStar        0.09;
    a1              0.31;
    c1              10;
    Cmu             0.09;
    b1              1;
    F3              false;
}

Reading/calculating face velocity Uf

No finite volume options present

Courant Number mean: 0.273514 max: 0.603918

Starting time loop

Courant Number mean: 0.273514 max: 0.603918
Time = 0.445

GAMG:  Solving for cellDisplacementx, Initial residual = 0, Final residual = 0, No Iterations 0
GAMG:  Solving for cellDisplacementy, Initial residual = 0, Final residual = 0, No Iterations 0
GAMG:  Solving for cellDisplacementz, Initial residual = 0, Final residual = 0, No Iterations 0
PIMPLE: iteration 1
DILUPBiCG:  Solving for Ux, Initial residual = 0.0171524, Final residual = 6.21525e-05, No Iterations 1
DILUPBiCG:  Solving for Uy, Initial residual = 0.00267975, Final residual = 8.8549e-06, No Iterations 1
DILUPBiCG:  Solving for Uz, Initial residual = 0.0103473, Final residual = 2.31356e-05, No Iterations 1
GAMG:  Solving for p, Initial residual = 0.119924, Final residual = 0.000493326, No Iterations 4
GAMG:  Solving for p, Initial residual = 0.0174233, Final residual = 0.000171895, No Iterations 10
GAMG:  Solving for p, Initial residual = 0.00761247, Final residual = 6.43786e-05, No Iterations 12
time step continuity errors : sum local = 4.3236e-07, global = -1.28663e-07, cumulative = -1.28663e-07
GAMG:  Solving for p, Initial residual = 0.0555164, Final residual = 0.000491039, No Iterations 3
GAMG:  Solving for p, Initial residual = 0.00852855, Final residual = 7.24485e-05, No Iterations 11
GAMG:  Solving for p, Initial residual = 0.00385783, Final residual = 3.40166e-05, No Iterations 10
time step continuity errors : sum local = 2.29765e-07, global = -6.31824e-08, cumulative = -1.91845e-07
PIMPLE: iteration 2
DILUPBiCG:  Solving for Ux, Initial residual = 0.00463132, Final residual = 2.02517e-05, No Iterations 1
DILUPBiCG:  Solving for Uy, Initial residual = 0.000745385, Final residual = 6.26944e-06, No Iterations 1
DILUPBiCG:  Solving for Uz, Initial residual = 0.00335143, Final residual = 1.29222e-05, No Iterations 1
GAMG:  Solving for p, Initial residual = 0.0554437, Final residual = 0.000514037, No Iterations 5
GAMG:  Solving for p, Initial residual = 0.0162248, Final residual = 0.000158854, No Iterations 9
GAMG:  Solving for p, Initial residual = 0.00516488, Final residual = 4.47045e-05, No Iterations 16
time step continuity errors : sum local = 2.59378e-07, global = 7.67876e-08, cumulative = -1.15057e-07
GAMG:  Solving for p, Initial residual = 0.0294426, Final residual = 0.000270297, No Iterations 4
GAMG:  Solving for p, Initial residual = 0.0076034, Final residual = 6.93209e-05, No Iterations 10
GAMG:  Solving for p, Initial residual = 0.00248048, Final residual = 2.22704e-05, No Iterations 14
time step continuity errors : sum local = 1.29928e-07, global = 3.87657e-08, cumulative = -7.62916e-08
PIMPLE: iteration 3
DILUPBiCG:  Solving for Ux, Initial residual = 0.000902813, Final residual = 6.93306e-06, No Iterations 1
DILUPBiCG:  Solving for Uy, Initial residual = 0.000152062, Final residual = 5.03687e-06, No Iterations 1
DILUPBiCG:  Solving for Uz, Initial residual = 0.00340198, Final residual = 9.85309e-07, No Iterations 2
GAMG:  Solving for p, Initial residual = 0.0548731, Final residual = 0.000396917, No Iterations 5
GAMG:  Solving for p, Initial residual = 0.0148823, Final residual = 0.000128775, No Iterations 12
GAMG:  Solving for p, Initial residual = 0.00657677, Final residual = 6.44208e-05, No Iterations 10
time step continuity errors : sum local = 4.11336e-07, global = 1.10377e-07, cumulative = 3.40853e-08
GAMG:  Solving for p, Initial residual = 0.00411843, Final residual = 2.09189e-05, No Iterations 6
GAMG:  Solving for p, Initial residual = 0.00248876, Final residual = 1.73495e-05, No Iterations 4
GAMG:  Solving for p, Initial residual = 0.000791227, Final residual = 9.61293e-07, No Iterations 29
time step continuity errors : sum local = 6.11471e-09, global = -1.79998e-09, cumulative = 3.22853e-08
DILUPBiCG:  Solving for omega, Initial residual = 0.00117472, Final residual = 1.52983e-06, No Iterations 1
DILUPBiCG:  Solving for k, Initial residual = 0.00619592, Final residual = 9.59963e-07, No Iterations 2
ExecutionTime = 16.61 s  ClockTime = 17 s

End

