/*---------------------------------------------------------------------------*\
| =========                 |                                                 |
| \\      /  F ield         | OpenFOAM: The Open Source CFD Toolbox           |
|  \\    /   O peration     | Version:  2.3.1                                 |
|   \\  /    A nd           | Web:      www.OpenFOAM.org                      |
|    \\/     M anipulation  |                                                 |
\*---------------------------------------------------------------------------*/
Build  : 2.3.1-262087cdf8db
Exec   : linearisedPimpleDyMFoam
Date   : Jun 06 2023
Time   : 00:42:24
Host   : "jcosson-VirtualBox"
PID    : 10933
Case   : /home/jcosson/workspace/henersj_shootingdata/calcs/moderate_deformed/primal/100_intervals_05-06-23/sweep21/interval89
nProcs : 1
sigFpe : Enabling floating point exception trapping (FOAM_SIGFPE).
fileModificationChecking : Monitoring run-time modified files using timeStampMaster
allowSystemOperations : Allowing user-supplied system call operations

// * * * * * * * * * * * * * * * * * * * * * * * * * * * * * * * * * * * * * //
Create time

Create mesh for time = 0.488

Selecting dynamicFvMesh dynamicMotionSolverFvMesh
Selecting motion solver: displacementLaplacian
Selecting motion diffusion: quadratic
Selecting motion diffusion: quadratic
Selecting motion diffusion: inverseDistance
Reading field linP

Reading field linU

starte createPhia.H

Reading/calculating face flux field linPhi

Adjungierte Interpolation durchgefuehrt

createPhia.H verlassen

setRefCell ausgefuehrt

No finite volume options present


PIMPLE: no residual control data found. Calculations will employ 3 corrector loops


Starting time loop

Time = 0.489

Reading field p

Reading field U

Read primal fluxes 

Reading primal face flux fields phi/meshPhi

Created primal fluxes 

Selecting incompressible transport model Newtonian
singlePhaseTransportModel gewaehlt 

Selecting turbulence model type RASModel
Selecting RAS turbulence model kOmegaSST
bounding k, min: 0 max: 0.000696008 average: 0.000158519
kOmegaSSTCoeffs
{
    alphaK1         0.85034;
    alphaK2         1;
    alphaOmega1     0.5;
    alphaOmega2     0.85616;
    gamma1          0.5532;
    gamma2          0.4403;
    beta1           0.075;
    beta2           0.0828;
    betaStar        0.09;
    a1              0.31;
    c1              10;
    Cmu             0.09;
    b1              1;
    F3              false;
}

autoPtr ausgefuehrt

Reading/calculating face velocity Uf

Init adjoint face velocity linUf

Courant Number mean: 0.119048 max: 0.269365
Adjoint Courant Number mean: 0.000180603 max: 0.0053603
GAMG:  Solving for cellDisplacementx, Initial residual = 0, Final residual = 0, No Iterations 0
GAMG:  Solving for cellDisplacementy, Initial residual = 0, Final residual = 0, No Iterations 0
GAMG:  Solving for cellDisplacementz, Initial residual = 0, Final residual = 0, No Iterations 0
PIMPLE: iteration 1
DILUPBiCG:  Solving for linUx, Initial residual = 0.0207551, Final residual = 3.98295e-05, No Iterations 1
DILUPBiCG:  Solving for linUy, Initial residual = 0.0349574, Final residual = 5.08282e-05, No Iterations 1
DILUPBiCG:  Solving for linUz, Initial residual = 0.0470059, Final residual = 8.55508e-05, No Iterations 1
GAMG:  Solving for linP, Initial residual = 1, Final residual = 0.00517794, No Iterations 3
GAMG:  Solving for linP, Initial residual = 0.0305685, Final residual = 9.45881e-05, No Iterations 5
GAMG:  Solving for linP, Initial residual = 0.0107918, Final residual = 6.32848e-05, No Iterations 4
Adjoint continuity errors : sum local = 6.67331e-09, global = -5.84932e-10, cumulative = -5.84932e-10
GAMG:  Solving for linP, Initial residual = 0.0198288, Final residual = 0.000103476, No Iterations 4
GAMG:  Solving for linP, Initial residual = 0.00561743, Final residual = 3.93507e-05, No Iterations 4
GAMG:  Solving for linP, Initial residual = 0.00200604, Final residual = 1.13171e-05, No Iterations 4
Adjoint continuity errors : sum local = 1.17521e-09, global = -4.25041e-11, cumulative = -6.27436e-10
PIMPLE: iteration 2
DILUPBiCG:  Solving for linUx, Initial residual = 0.00255402, Final residual = 7.45644e-06, No Iterations 1
DILUPBiCG:  Solving for linUy, Initial residual = 0.00557024, Final residual = 1.38302e-05, No Iterations 1
DILUPBiCG:  Solving for linUz, Initial residual = 0.00810342, Final residual = 2.73486e-05, No Iterations 1
GAMG:  Solving for linP, Initial residual = 0.0283268, Final residual = 0.000230855, No Iterations 3
GAMG:  Solving for linP, Initial residual = 0.00444397, Final residual = 2.82545e-05, No Iterations 4
GAMG:  Solving for linP, Initial residual = 0.0013852, Final residual = 1.10302e-05, No Iterations 4
Adjoint continuity errors : sum local = 1.15675e-09, global = -2.11433e-10, cumulative = -8.3887e-10
GAMG:  Solving for linP, Initial residual = 0.00158951, Final residual = 1.05517e-05, No Iterations 4
GAMG:  Solving for linP, Initial residual = 0.00061567, Final residual = 3.00348e-06, No Iterations 4
GAMG:  Solving for linP, Initial residual = 0.000224302, Final residual = 1.60867e-06, No Iterations 4
Adjoint continuity errors : sum local = 1.68759e-10, global = 7.88693e-12, cumulative = -8.30983e-10
PIMPLE: iteration 3
DILUPBiCG:  Solving for linUx, Initial residual = 0.000263975, Final residual = 1.31319e-06, No Iterations 1
DILUPBiCG:  Solving for linUy, Initial residual = 0.000465381, Final residual = 4.59432e-06, No Iterations 1
DILUPBiCG:  Solving for linUz, Initial residual = 0.000471509, Final residual = 1.29081e-06, No Iterations 1
GAMG:  Solving for linP, Initial residual = 0.0417928, Final residual = 0.000152407, No Iterations 3
GAMG:  Solving for linP, Initial residual = 0.00262566, Final residual = 2.3656e-05, No Iterations 3
GAMG:  Solving for linP, Initial residual = 0.000944066, Final residual = 5.27242e-06, No Iterations 4
Adjoint continuity errors : sum local = 5.6982e-10, global = -7.34246e-11, cumulative = -9.04407e-10
GAMG:  Solving for linP, Initial residual = 0.00103244, Final residual = 6.25828e-06, No Iterations 3
GAMG:  Solving for linP, Initial residual = 0.00021984, Final residual = 1.33127e-06, No Iterations 4
GAMG:  Solving for linP, Initial residual = 8.94436e-05, Final residual = 4.18596e-07, No Iterations 4
Adjoint continuity errors : sum local = 4.52642e-11, global = -1.62307e-11, cumulative = -9.20638e-10
ExecutionTime = 11.7 s  ClockTime = 12 s

End

