/*---------------------------------------------------------------------------*\
| =========                 |                                                 |
| \\      /  F ield         | OpenFOAM: The Open Source CFD Toolbox           |
|  \\    /   O peration     | Version:  2.3.1                                 |
|   \\  /    A nd           | Web:      www.OpenFOAM.org                      |
|    \\/     M anipulation  |                                                 |
\*---------------------------------------------------------------------------*/
Build  : 2.3.1-262087cdf8db
Exec   : pimpleDyMFoam
Date   : Jun 06 2023
Time   : 00:39:56
Host   : "jcosson-VirtualBox"
PID    : 9357
Case   : /home/jcosson/workspace/henersj_shootingdata/calcs/moderate_deformed/primal/100_intervals_05-06-23/sweep21/interval62
nProcs : 1
sigFpe : Enabling floating point exception trapping (FOAM_SIGFPE).
fileModificationChecking : Monitoring run-time modified files using timeStampMaster
allowSystemOperations : Allowing user-supplied system call operations

// * * * * * * * * * * * * * * * * * * * * * * * * * * * * * * * * * * * * * //
Create time

Create mesh for time = 0.461

Selecting dynamicFvMesh dynamicMotionSolverFvMesh
Selecting motion solver: displacementLaplacian
Selecting motion diffusion: quadratic
Selecting motion diffusion: quadratic
Selecting motion diffusion: inverseDistance

PIMPLE: no residual control data found. Calculations will employ 3 corrector loops

Reading field p

Reading field U

Reading/calculating face flux field phi

Selecting incompressible transport model Newtonian
Selecting turbulence model type RASModel
Selecting RAS turbulence model kOmegaSST
kOmegaSSTCoeffs
{
    alphaK1         0.85034;
    alphaK2         1;
    alphaOmega1     0.5;
    alphaOmega2     0.85616;
    gamma1          0.5532;
    gamma2          0.4403;
    beta1           0.075;
    beta2           0.0828;
    betaStar        0.09;
    a1              0.31;
    c1              10;
    Cmu             0.09;
    b1              1;
    F3              false;
}

Reading/calculating face velocity Uf

No finite volume options present

Courant Number mean: 0.258945 max: 0.573642

Starting time loop

Courant Number mean: 0.258945 max: 0.573642
Time = 0.462

GAMG:  Solving for cellDisplacementx, Initial residual = 0, Final residual = 0, No Iterations 0
GAMG:  Solving for cellDisplacementy, Initial residual = 0, Final residual = 0, No Iterations 0
GAMG:  Solving for cellDisplacementz, Initial residual = 0, Final residual = 0, No Iterations 0
PIMPLE: iteration 1
DILUPBiCG:  Solving for Ux, Initial residual = 0.0273078, Final residual = 0.000111464, No Iterations 1
DILUPBiCG:  Solving for Uy, Initial residual = 0.00434398, Final residual = 1.01899e-05, No Iterations 1
DILUPBiCG:  Solving for Uz, Initial residual = 0.0146795, Final residual = 4.01114e-05, No Iterations 1
GAMG:  Solving for p, Initial residual = 0.15364, Final residual = 0.00132774, No Iterations 6
GAMG:  Solving for p, Initial residual = 0.0186797, Final residual = 0.000179845, No Iterations 18
GAMG:  Solving for p, Initial residual = 0.007689, Final residual = 7.03089e-05, No Iterations 12
time step continuity errors : sum local = 6.56185e-07, global = 1.97941e-07, cumulative = 1.97941e-07
GAMG:  Solving for p, Initial residual = 0.0624589, Final residual = 0.000424025, No Iterations 6
GAMG:  Solving for p, Initial residual = 0.00933321, Final residual = 8.48323e-05, No Iterations 16
GAMG:  Solving for p, Initial residual = 0.00401032, Final residual = 3.42815e-05, No Iterations 12
time step continuity errors : sum local = 3.18401e-07, global = 9.53012e-08, cumulative = 2.93242e-07
PIMPLE: iteration 2
DILUPBiCG:  Solving for Ux, Initial residual = 0.00854509, Final residual = 4.17443e-05, No Iterations 1
DILUPBiCG:  Solving for Uy, Initial residual = 0.00142852, Final residual = 3.90297e-06, No Iterations 1
DILUPBiCG:  Solving for Uz, Initial residual = 0.00398953, Final residual = 1.28174e-05, No Iterations 1
GAMG:  Solving for p, Initial residual = 0.0641447, Final residual = 0.000418335, No Iterations 4
GAMG:  Solving for p, Initial residual = 0.0106206, Final residual = 9.63248e-05, No Iterations 14
GAMG:  Solving for p, Initial residual = 0.00488762, Final residual = 4.4249e-05, No Iterations 8
time step continuity errors : sum local = 3.47361e-07, global = -1.10378e-07, cumulative = 1.82864e-07
GAMG:  Solving for p, Initial residual = 0.0324316, Final residual = 0.000176743, No Iterations 4
GAMG:  Solving for p, Initial residual = 0.00517761, Final residual = 4.43607e-05, No Iterations 12
GAMG:  Solving for p, Initial residual = 0.00231361, Final residual = 2.00216e-05, No Iterations 8
time step continuity errors : sum local = 1.5797e-07, global = -4.77805e-08, cumulative = 1.35084e-07
PIMPLE: iteration 3
DILUPBiCG:  Solving for Ux, Initial residual = 0.00232426, Final residual = 3.01774e-06, No Iterations 2
DILUPBiCG:  Solving for Uy, Initial residual = 0.000385299, Final residual = 6.99421e-06, No Iterations 1
DILUPBiCG:  Solving for Uz, Initial residual = 0.00577501, Final residual = 1.56024e-06, No Iterations 2
GAMG:  Solving for p, Initial residual = 0.0423688, Final residual = 0.000336863, No Iterations 5
GAMG:  Solving for p, Initial residual = 0.00967148, Final residual = 8.3835e-05, No Iterations 15
GAMG:  Solving for p, Initial residual = 0.00451965, Final residual = 3.74728e-05, No Iterations 10
time step continuity errors : sum local = 3.27889e-07, global = -8.57509e-08, cumulative = 4.93328e-08
GAMG:  Solving for p, Initial residual = 0.00293839, Final residual = 2.88532e-05, No Iterations 18
GAMG:  Solving for p, Initial residual = 0.0016623, Final residual = 1.57156e-05, No Iterations 4
GAMG:  Solving for p, Initial residual = 0.000628802, Final residual = 8.79651e-07, No Iterations 40
time step continuity errors : sum local = 7.69004e-09, global = 2.28641e-09, cumulative = 5.16192e-08
DILUPBiCG:  Solving for omega, Initial residual = 0.000642, Final residual = 1.29435e-06, No Iterations 1
DILUPBiCG:  Solving for k, Initial residual = 0.00483007, Final residual = 1.19838e-06, No Iterations 2
ExecutionTime = 17.05 s  ClockTime = 17 s

End

