/*---------------------------------------------------------------------------*\
| =========                 |                                                 |
| \\      /  F ield         | OpenFOAM: The Open Source CFD Toolbox           |
|  \\    /   O peration     | Version:  2.3.1                                 |
|   \\  /    A nd           | Web:      www.OpenFOAM.org                      |
|    \\/     M anipulation  |                                                 |
\*---------------------------------------------------------------------------*/
Build  : 2.3.1-262087cdf8db
Exec   : linearisedPimpleDyMFoam
Date   : Jun 06 2023
Time   : 01:08:00
Host   : "jcosson-VirtualBox"
PID    : 23853
Case   : /home/jcosson/workspace/henersj_shootingdata/calcs/moderate_deformed/primal/100_intervals_05-06-23/sweep29/interval60
nProcs : 1
sigFpe : Enabling floating point exception trapping (FOAM_SIGFPE).
fileModificationChecking : Monitoring run-time modified files using timeStampMaster
allowSystemOperations : Allowing user-supplied system call operations

// * * * * * * * * * * * * * * * * * * * * * * * * * * * * * * * * * * * * * //
Create time

Create mesh for time = 0.459

Selecting dynamicFvMesh dynamicMotionSolverFvMesh
Selecting motion solver: displacementLaplacian
Selecting motion diffusion: quadratic
Selecting motion diffusion: quadratic
Selecting motion diffusion: inverseDistance
Reading field linP

Reading field linU

starte createPhia.H

Reading/calculating face flux field linPhi

Adjungierte Interpolation durchgefuehrt

createPhia.H verlassen

setRefCell ausgefuehrt

No finite volume options present


PIMPLE: no residual control data found. Calculations will employ 3 corrector loops


Starting time loop

Time = 0.46

Reading field p

Reading field U

Read primal fluxes 

Reading primal face flux fields phi/meshPhi

Created primal fluxes 

Selecting incompressible transport model Newtonian
singlePhaseTransportModel gewaehlt 

Selecting turbulence model type RASModel
Selecting RAS turbulence model kOmegaSST
kOmegaSSTCoeffs
{
    alphaK1         0.85034;
    alphaK2         1;
    alphaOmega1     0.5;
    alphaOmega2     0.85616;
    gamma1          0.5532;
    gamma2          0.4403;
    beta1           0.075;
    beta2           0.0828;
    betaStar        0.09;
    a1              0.31;
    c1              10;
    Cmu             0.09;
    b1              1;
    F3              false;
}

autoPtr ausgefuehrt

Reading/calculating face velocity Uf

Init adjoint face velocity linUf

Courant Number mean: 0.262483 max: 0.580367
Adjoint Courant Number mean: 0.000177285 max: 0.00411613
GAMG:  Solving for cellDisplacementx, Initial residual = 0, Final residual = 0, No Iterations 0
GAMG:  Solving for cellDisplacementy, Initial residual = 0, Final residual = 0, No Iterations 0
GAMG:  Solving for cellDisplacementz, Initial residual = 0, Final residual = 0, No Iterations 0
PIMPLE: iteration 1
DILUPBiCG:  Solving for linUx, Initial residual = 0.0470746, Final residual = 0.000153737, No Iterations 1
DILUPBiCG:  Solving for linUy, Initial residual = 0.0869164, Final residual = 0.000220724, No Iterations 1
DILUPBiCG:  Solving for linUz, Initial residual = 0.115885, Final residual = 0.000314725, No Iterations 1
GAMG:  Solving for linP, Initial residual = 1, Final residual = 0.00988026, No Iterations 2
GAMG:  Solving for linP, Initial residual = 0.0129596, Final residual = 9.15872e-05, No Iterations 4
GAMG:  Solving for linP, Initial residual = 0.00463861, Final residual = 2.06268e-05, No Iterations 4
Adjoint continuity errors : sum local = 5.6912e-09, global = -1.04327e-09, cumulative = -1.04327e-09
GAMG:  Solving for linP, Initial residual = 0.0399203, Final residual = 0.000244233, No Iterations 3
GAMG:  Solving for linP, Initial residual = 0.004233, Final residual = 2.13076e-05, No Iterations 4
GAMG:  Solving for linP, Initial residual = 0.00133723, Final residual = 5.71273e-06, No Iterations 4
Adjoint continuity errors : sum local = 1.49293e-09, global = 3.34553e-11, cumulative = -1.00982e-09
PIMPLE: iteration 2
DILUPBiCG:  Solving for linUx, Initial residual = 0.0056689, Final residual = 2.36709e-05, No Iterations 1
DILUPBiCG:  Solving for linUy, Initial residual = 0.0124461, Final residual = 4.1417e-05, No Iterations 1
DILUPBiCG:  Solving for linUz, Initial residual = 0.0137978, Final residual = 4.69574e-05, No Iterations 1
GAMG:  Solving for linP, Initial residual = 0.0512934, Final residual = 0.000465438, No Iterations 2
GAMG:  Solving for linP, Initial residual = 0.00246796, Final residual = 2.44411e-05, No Iterations 3
GAMG:  Solving for linP, Initial residual = 0.000757228, Final residual = 3.37973e-06, No Iterations 4
Adjoint continuity errors : sum local = 8.97345e-10, global = -1.31033e-10, cumulative = -1.14085e-09
GAMG:  Solving for linP, Initial residual = 0.0033409, Final residual = 1.95764e-05, No Iterations 3
GAMG:  Solving for linP, Initial residual = 0.000453186, Final residual = 4.00722e-06, No Iterations 3
GAMG:  Solving for linP, Initial residual = 0.000142258, Final residual = 8.31519e-07, No Iterations 4
Adjoint continuity errors : sum local = 2.20801e-10, global = -2.30348e-11, cumulative = -1.16389e-09
PIMPLE: iteration 3
DILUPBiCG:  Solving for linUx, Initial residual = 0.00100736, Final residual = 5.74983e-06, No Iterations 1
DILUPBiCG:  Solving for linUy, Initial residual = 0.00233409, Final residual = 2.2815e-07, No Iterations 2
DILUPBiCG:  Solving for linUz, Initial residual = 0.0020564, Final residual = 7.63488e-06, No Iterations 1
GAMG:  Solving for linP, Initial residual = 0.0426756, Final residual = 0.000334434, No Iterations 2
GAMG:  Solving for linP, Initial residual = 0.0014319, Final residual = 1.13758e-05, No Iterations 3
GAMG:  Solving for linP, Initial residual = 0.000473131, Final residual = 4.12175e-06, No Iterations 3
Adjoint continuity errors : sum local = 1.12611e-09, global = 6.32615e-11, cumulative = -1.10063e-09
GAMG:  Solving for linP, Initial residual = 0.00241072, Final residual = 7.80281e-06, No Iterations 3
GAMG:  Solving for linP, Initial residual = 0.000194911, Final residual = 1.58851e-06, No Iterations 3
GAMG:  Solving for linP, Initial residual = 6.82337e-05, Final residual = 4.01642e-07, No Iterations 4
Adjoint continuity errors : sum local = 1.10074e-10, global = -7.58649e-12, cumulative = -1.10821e-09
ExecutionTime = 11 s  ClockTime = 11 s

End

