/*---------------------------------------------------------------------------*\
| =========                 |                                                 |
| \\      /  F ield         | OpenFOAM: The Open Source CFD Toolbox           |
|  \\    /   O peration     | Version:  2.3.1                                 |
|   \\  /    A nd           | Web:      www.OpenFOAM.org                      |
|    \\/     M anipulation  |                                                 |
\*---------------------------------------------------------------------------*/
Build  : 2.3.1-262087cdf8db
Exec   : pimpleDyMFoam
Date   : Jun 04 2023
Time   : 16:56:39
Host   : "jcosson-VirtualBox"
PID    : 4419
Case   : /home/jcosson/workspace/henersj_shootingdata/calcs/moderate_deformed/primal/10_intervals_04-06-23/sweep5/interval10
nProcs : 1
sigFpe : Enabling floating point exception trapping (FOAM_SIGFPE).
fileModificationChecking : Monitoring run-time modified files using timeStampMaster
allowSystemOperations : Allowing user-supplied system call operations

// * * * * * * * * * * * * * * * * * * * * * * * * * * * * * * * * * * * * * //
Create time

Create mesh for time = 0.49

Selecting dynamicFvMesh dynamicMotionSolverFvMesh
Selecting motion solver: displacementLaplacian
Selecting motion diffusion: quadratic
Selecting motion diffusion: quadratic
Selecting motion diffusion: inverseDistance

PIMPLE: no residual control data found. Calculations will employ 3 corrector loops

Reading field p

Reading field U

Reading/calculating face flux field phi

Selecting incompressible transport model Newtonian
Selecting turbulence model type RASModel
Selecting RAS turbulence model kOmegaSST
bounding k, min: 0 max: 0.000620574 average: 0.000153012
kOmegaSSTCoeffs
{
    alphaK1         0.85034;
    alphaK2         1;
    alphaOmega1     0.5;
    alphaOmega2     0.85616;
    gamma1          0.5532;
    gamma2          0.4403;
    beta1           0.075;
    beta2           0.0828;
    betaStar        0.09;
    a1              0.31;
    c1              10;
    Cmu             0.09;
    b1              1;
    F3              false;
}

Reading/calculating face velocity Uf

No finite volume options present

Courant Number mean: 0.11605 max: 0.26511

Starting time loop

Courant Number mean: 0.11605 max: 0.26511
Time = 0.491

GAMG:  Solving for cellDisplacementx, Initial residual = 0, Final residual = 0, No Iterations 0
GAMG:  Solving for cellDisplacementy, Initial residual = 0, Final residual = 0, No Iterations 0
GAMG:  Solving for cellDisplacementz, Initial residual = 0, Final residual = 0, No Iterations 0
PIMPLE: iteration 1
DILUPBiCG:  Solving for Ux, Initial residual = 0.051469, Final residual = 0.000189982, No Iterations 1
DILUPBiCG:  Solving for Uy, Initial residual = 0.0105357, Final residual = 2.08712e-05, No Iterations 1
DILUPBiCG:  Solving for Uz, Initial residual = 0.0127678, Final residual = 1.24655e-05, No Iterations 1
GAMG:  Solving for p, Initial residual = 0.114504, Final residual = 0.000650876, No Iterations 4
GAMG:  Solving for p, Initial residual = 0.0159435, Final residual = 0.000143467, No Iterations 16
GAMG:  Solving for p, Initial residual = 0.00756909, Final residual = 6.47079e-05, No Iterations 4
time step continuity errors : sum local = 6.58519e-07, global = 2.41825e-07, cumulative = 2.41825e-07
GAMG:  Solving for p, Initial residual = 0.0520724, Final residual = 0.00027807, No Iterations 4
GAMG:  Solving for p, Initial residual = 0.00779932, Final residual = 7.44089e-05, No Iterations 14
GAMG:  Solving for p, Initial residual = 0.00379921, Final residual = 3.30463e-05, No Iterations 4
time step continuity errors : sum local = 3.38505e-07, global = 1.04995e-07, cumulative = 3.4682e-07
PIMPLE: iteration 2
DILUPBiCG:  Solving for Ux, Initial residual = 0.0131396, Final residual = 7.41159e-05, No Iterations 1
DILUPBiCG:  Solving for Uy, Initial residual = 0.00275856, Final residual = 5.43211e-06, No Iterations 1
DILUPBiCG:  Solving for Uz, Initial residual = 0.00252225, Final residual = 7.07354e-06, No Iterations 1
GAMG:  Solving for p, Initial residual = 0.0508476, Final residual = 0.000507829, No Iterations 4
GAMG:  Solving for p, Initial residual = 0.0112598, Final residual = 0.000106138, No Iterations 14
GAMG:  Solving for p, Initial residual = 0.0051482, Final residual = 4.14773e-05, No Iterations 4
time step continuity errors : sum local = 3.69838e-07, global = -1.36134e-07, cumulative = 2.10686e-07
GAMG:  Solving for p, Initial residual = 0.0270781, Final residual = 0.000244612, No Iterations 4
GAMG:  Solving for p, Initial residual = 0.00630933, Final residual = 5.56293e-05, No Iterations 12
GAMG:  Solving for p, Initial residual = 0.00244894, Final residual = 2.17894e-05, No Iterations 4
time step continuity errors : sum local = 1.94529e-07, global = -7.31429e-08, cumulative = 1.37544e-07
PIMPLE: iteration 3
DILUPBiCG:  Solving for Ux, Initial residual = 0.00271376, Final residual = 2.40323e-06, No Iterations 2
DILUPBiCG:  Solving for Uy, Initial residual = 0.000609629, Final residual = 4.85964e-06, No Iterations 1
DILUPBiCG:  Solving for Uz, Initial residual = 0.00416688, Final residual = 1.39974e-06, No Iterations 2
GAMG:  Solving for p, Initial residual = 0.0464577, Final residual = 0.000355677, No Iterations 5
GAMG:  Solving for p, Initial residual = 0.0108145, Final residual = 0.000101879, No Iterations 14
GAMG:  Solving for p, Initial residual = 0.00560795, Final residual = 5.28556e-05, No Iterations 10
time step continuity errors : sum local = 5.2717e-07, global = -1.40094e-07, cumulative = -2.55029e-09
GAMG:  Solving for p, Initial residual = 0.00263435, Final residual = 2.34898e-05, No Iterations 7
GAMG:  Solving for p, Initial residual = 0.00133555, Final residual = 1.30311e-05, No Iterations 5
GAMG:  Solving for p, Initial residual = 0.000526774, Final residual = 9.21904e-07, No Iterations 27
time step continuity errors : sum local = 9.07961e-09, global = 2.71226e-09, cumulative = 1.61974e-10
DILUPBiCG:  Solving for omega, Initial residual = 0.00125889, Final residual = 7.30911e-07, No Iterations 1
DILUPBiCG:  Solving for k, Initial residual = 0.00351423, Final residual = 6.04074e-07, No Iterations 2
bounding k, min: 0 max: 0.000604077 average: 0.000152123
ExecutionTime = 7.24 s  ClockTime = 7 s

Courant Number mean: 0.112864 max: 0.258317
Time = 0.492

GAMG:  Solving for cellDisplacementx, Initial residual = 0, Final residual = 0, No Iterations 0
GAMG:  Solving for cellDisplacementy, Initial residual = 0, Final residual = 0, No Iterations 0
GAMG:  Solving for cellDisplacementz, Initial residual = 0, Final residual = 0, No Iterations 0
PIMPLE: iteration 1
DILUPBiCG:  Solving for Ux, Initial residual = 0.048159, Final residual = 0.000177062, No Iterations 1
DILUPBiCG:  Solving for Uy, Initial residual = 0.00991204, Final residual = 1.95284e-05, No Iterations 1
DILUPBiCG:  Solving for Uz, Initial residual = 0.0117608, Final residual = 1.07316e-05, No Iterations 1
GAMG:  Solving for p, Initial residual = 0.104208, Final residual = 0.000632933, No Iterations 4
GAMG:  Solving for p, Initial residual = 0.013762, Final residual = 0.000120091, No Iterations 18
GAMG:  Solving for p, Initial residual = 0.00703528, Final residual = 5.70579e-05, No Iterations 5
time step continuity errors : sum local = 5.36173e-07, global = 1.0656e-07, cumulative = 1.06722e-07
GAMG:  Solving for p, Initial residual = 0.0477376, Final residual = 0.000265012, No Iterations 4
GAMG:  Solving for p, Initial residual = 0.00672013, Final residual = 6.10652e-05, No Iterations 16
GAMG:  Solving for p, Initial residual = 0.00351673, Final residual = 2.61504e-05, No Iterations 5
time step continuity errors : sum local = 2.47253e-07, global = -2.80277e-08, cumulative = 7.86941e-08
PIMPLE: iteration 2
DILUPBiCG:  Solving for Ux, Initial residual = 0.0121686, Final residual = 6.87686e-05, No Iterations 1
DILUPBiCG:  Solving for Uy, Initial residual = 0.00258537, Final residual = 5.0696e-06, No Iterations 1
DILUPBiCG:  Solving for Uz, Initial residual = 0.00254073, Final residual = 1.52467e-05, No Iterations 1
GAMG:  Solving for p, Initial residual = 0.0455542, Final residual = 0.000318964, No Iterations 6
GAMG:  Solving for p, Initial residual = 0.0102701, Final residual = 9.43696e-05, No Iterations 14
GAMG:  Solving for p, Initial residual = 0.00388022, Final residual = 3.24705e-05, No Iterations 10
time step continuity errors : sum local = 2.67669e-07, global = -6.85711e-08, cumulative = 1.0123e-08
GAMG:  Solving for p, Initial residual = 0.0241305, Final residual = 0.000237761, No Iterations 5
GAMG:  Solving for p, Initial residual = 0.00534449, Final residual = 4.75715e-05, No Iterations 5
GAMG:  Solving for p, Initial residual = 0.00199001, Final residual = 1.63031e-05, No Iterations 4
time step continuity errors : sum local = 1.34614e-07, global = -5.08763e-08, cumulative = -4.07533e-08
PIMPLE: iteration 3
DILUPBiCG:  Solving for Ux, Initial residual = 0.00244102, Final residual = 2.59089e-06, No Iterations 2
DILUPBiCG:  Solving for Uy, Initial residual = 0.000566355, Final residual = 5.30025e-06, No Iterations 1
DILUPBiCG:  Solving for Uz, Initial residual = 0.00393038, Final residual = 1.79143e-06, No Iterations 2
GAMG:  Solving for p, Initial residual = 0.0476165, Final residual = 0.000350878, No Iterations 5
GAMG:  Solving for p, Initial residual = 0.0108223, Final residual = 0.000103795, No Iterations 14
GAMG:  Solving for p, Initial residual = 0.00573031, Final residual = 5.44747e-05, No Iterations 10
time step continuity errors : sum local = 5.01135e-07, global = -1.33797e-07, cumulative = -1.7455e-07
GAMG:  Solving for p, Initial residual = 0.00268137, Final residual = 2.44854e-05, No Iterations 7
GAMG:  Solving for p, Initial residual = 0.00140838, Final residual = 1.33202e-05, No Iterations 5
GAMG:  Solving for p, Initial residual = 0.000580892, Final residual = 9.8273e-07, No Iterations 27
time step continuity errors : sum local = 8.91874e-09, global = 2.70074e-09, cumulative = -1.71849e-07
DILUPBiCG:  Solving for omega, Initial residual = 0.00128022, Final residual = 7.20836e-07, No Iterations 1
DILUPBiCG:  Solving for k, Initial residual = 0.00346693, Final residual = 6.13581e-07, No Iterations 2
bounding k, min: 0 max: 0.000587172 average: 0.000151261
ExecutionTime = 12.72 s  ClockTime = 12 s

Courant Number mean: 0.109982 max: 0.252142
Time = 0.493

GAMG:  Solving for cellDisplacementx, Initial residual = 0, Final residual = 0, No Iterations 0
GAMG:  Solving for cellDisplacementy, Initial residual = 0, Final residual = 0, No Iterations 0
GAMG:  Solving for cellDisplacementz, Initial residual = 0, Final residual = 0, No Iterations 0
PIMPLE: iteration 1
DILUPBiCG:  Solving for Ux, Initial residual = 0.0442332, Final residual = 0.000163273, No Iterations 1
DILUPBiCG:  Solving for Uy, Initial residual = 0.0092541, Final residual = 1.81352e-05, No Iterations 1
DILUPBiCG:  Solving for Uz, Initial residual = 0.0109001, Final residual = 1.23352e-05, No Iterations 1
GAMG:  Solving for p, Initial residual = 0.103458, Final residual = 0.000517713, No Iterations 4
GAMG:  Solving for p, Initial residual = 0.0133052, Final residual = 0.000131388, No Iterations 16
GAMG:  Solving for p, Initial residual = 0.00680581, Final residual = 6.2116e-05, No Iterations 4
time step continuity errors : sum local = 5.34028e-07, global = 1.98168e-07, cumulative = 2.6318e-08
GAMG:  Solving for p, Initial residual = 0.0477429, Final residual = 0.000223134, No Iterations 4
GAMG:  Solving for p, Initial residual = 0.00644738, Final residual = 6.00375e-05, No Iterations 16
GAMG:  Solving for p, Initial residual = 0.00343183, Final residual = 2.69755e-05, No Iterations 5
time step continuity errors : sum local = 2.33607e-07, global = -7.9742e-08, cumulative = -5.3424e-08
PIMPLE: iteration 2
DILUPBiCG:  Solving for Ux, Initial residual = 0.0110854, Final residual = 6.27599e-05, No Iterations 1
DILUPBiCG:  Solving for Uy, Initial residual = 0.00237537, Final residual = 4.64557e-06, No Iterations 1
DILUPBiCG:  Solving for Uz, Initial residual = 0.00253611, Final residual = 1.92851e-05, No Iterations 1
GAMG:  Solving for p, Initial residual = 0.0454572, Final residual = 0.000315886, No Iterations 6
GAMG:  Solving for p, Initial residual = 0.0112302, Final residual = 9.78754e-05, No Iterations 14
GAMG:  Solving for p, Initial residual = 0.00433585, Final residual = 3.93657e-05, No Iterations 4
time step continuity errors : sum local = 2.9649e-07, global = -1.1121e-07, cumulative = -1.64634e-07
GAMG:  Solving for p, Initial residual = 0.0244207, Final residual = 0.000223961, No Iterations 5
GAMG:  Solving for p, Initial residual = 0.00640598, Final residual = 5.96805e-05, No Iterations 6
GAMG:  Solving for p, Initial residual = 0.00207993, Final residual = 1.26025e-05, No Iterations 5
time step continuity errors : sum local = 9.50453e-08, global = -2.37178e-08, cumulative = -1.88352e-07
PIMPLE: iteration 3
DILUPBiCG:  Solving for Ux, Initial residual = 0.00215878, Final residual = 3.0972e-06, No Iterations 2
DILUPBiCG:  Solving for Uy, Initial residual = 0.000493818, Final residual = 5.86722e-06, No Iterations 1
DILUPBiCG:  Solving for Uz, Initial residual = 0.00351866, Final residual = 1.80076e-06, No Iterations 2
GAMG:  Solving for p, Initial residual = 0.0484149, Final residual = 0.00036506, No Iterations 5
GAMG:  Solving for p, Initial residual = 0.0111225, Final residual = 0.0001072, No Iterations 14
GAMG:  Solving for p, Initial residual = 0.00597527, Final residual = 5.588e-05, No Iterations 10
time step continuity errors : sum local = 4.69787e-07, global = -1.26121e-07, cumulative = -3.14473e-07
GAMG:  Solving for p, Initial residual = 0.00269296, Final residual = 2.43104e-05, No Iterations 7
GAMG:  Solving for p, Initial residual = 0.00136347, Final residual = 1.30877e-05, No Iterations 5
GAMG:  Solving for p, Initial residual = 0.000531933, Final residual = 9.88244e-07, No Iterations 27
time step continuity errors : sum local = 8.19456e-09, global = 2.47572e-09, cumulative = -3.11997e-07
DILUPBiCG:  Solving for omega, Initial residual = 0.00129811, Final residual = 7.11263e-07, No Iterations 1
DILUPBiCG:  Solving for k, Initial residual = 0.00342117, Final residual = 6.26061e-07, No Iterations 2
bounding k, min: 0 max: 0.000570053 average: 0.000150425
ExecutionTime = 17.69 s  ClockTime = 17 s

Courant Number mean: 0.10741 max: 0.246615
Time = 0.494

GAMG:  Solving for cellDisplacementx, Initial residual = 0, Final residual = 0, No Iterations 0
GAMG:  Solving for cellDisplacementy, Initial residual = 0, Final residual = 0, No Iterations 0
GAMG:  Solving for cellDisplacementz, Initial residual = 0, Final residual = 0, No Iterations 0
PIMPLE: iteration 1
DILUPBiCG:  Solving for Ux, Initial residual = 0.0401366, Final residual = 0.000147774, No Iterations 1
DILUPBiCG:  Solving for Uy, Initial residual = 0.00844399, Final residual = 1.64896e-05, No Iterations 1
DILUPBiCG:  Solving for Uz, Initial residual = 0.0101759, Final residual = 9.98808e-06, No Iterations 1
GAMG:  Solving for p, Initial residual = 0.100213, Final residual = 0.000473228, No Iterations 4
GAMG:  Solving for p, Initial residual = 0.0131391, Final residual = 0.000119168, No Iterations 16
GAMG:  Solving for p, Initial residual = 0.00694735, Final residual = 5.14639e-05, No Iterations 5
time step continuity errors : sum local = 3.97618e-07, global = -3.87971e-09, cumulative = -3.15877e-07
GAMG:  Solving for p, Initial residual = 0.0467002, Final residual = 0.000193166, No Iterations 4
GAMG:  Solving for p, Initial residual = 0.00635378, Final residual = 6.31284e-05, No Iterations 14
GAMG:  Solving for p, Initial residual = 0.00344827, Final residual = 3.26512e-05, No Iterations 4
time step continuity errors : sum local = 2.54044e-07, global = 8.75093e-08, cumulative = -2.28368e-07
PIMPLE: iteration 2
DILUPBiCG:  Solving for Ux, Initial residual = 0.00990015, Final residual = 5.64559e-05, No Iterations 1
DILUPBiCG:  Solving for Uy, Initial residual = 0.00214044, Final residual = 4.17521e-06, No Iterations 1
DILUPBiCG:  Solving for Uz, Initial residual = 0.00265327, Final residual = 3.78901e-05, No Iterations 1
GAMG:  Solving for p, Initial residual = 0.0441057, Final residual = 0.000328136, No Iterations 6
GAMG:  Solving for p, Initial residual = 0.0113318, Final residual = 9.56332e-05, No Iterations 14
GAMG:  Solving for p, Initial residual = 0.00397019, Final residual = 3.77097e-05, No Iterations 10
time step continuity errors : sum local = 2.5606e-07, global = -6.51945e-08, cumulative = -2.93562e-07
GAMG:  Solving for p, Initial residual = 0.023567, Final residual = 0.000148513, No Iterations 6
GAMG:  Solving for p, Initial residual = 0.00596234, Final residual = 5.00574e-05, No Iterations 12
GAMG:  Solving for p, Initial residual = 0.00186746, Final residual = 1.71427e-05, No Iterations 12
time step continuity errors : sum local = 1.16635e-07, global = -3.40179e-08, cumulative = -3.2758e-07
PIMPLE: iteration 3
DILUPBiCG:  Solving for Ux, Initial residual = 0.00187048, Final residual = 6.23714e-06, No Iterations 2
DILUPBiCG:  Solving for Uy, Initial residual = 0.000445294, Final residual = 7.0334e-06, No Iterations 1
DILUPBiCG:  Solving for Uz, Initial residual = 0.00324244, Final residual = 7.51813e-06, No Iterations 2
GAMG:  Solving for p, Initial residual = 0.0507979, Final residual = 0.00036549, No Iterations 5
GAMG:  Solving for p, Initial residual = 0.011357, Final residual = 0.000110134, No Iterations 14
GAMG:  Solving for p, Initial residual = 0.00621572, Final residual = 5.85315e-05, No Iterations 10
time step continuity errors : sum local = 4.41731e-07, global = -1.19892e-07, cumulative = -4.47472e-07
GAMG:  Solving for p, Initial residual = 0.00279916, Final residual = 2.74743e-05, No Iterations 7
GAMG:  Solving for p, Initial residual = 0.00145464, Final residual = 1.18795e-05, No Iterations 6
GAMG:  Solving for p, Initial residual = 0.000599259, Final residual = 9.04227e-07, No Iterations 30
time step continuity errors : sum local = 6.72416e-09, global = 2.06422e-09, cumulative = -4.45408e-07
DILUPBiCG:  Solving for omega, Initial residual = 0.0013127, Final residual = 7.02188e-07, No Iterations 1
DILUPBiCG:  Solving for k, Initial residual = 0.0033779, Final residual = 6.43903e-07, No Iterations 2
bounding k, min: 0 max: 0.000552893 average: 0.000149616
ExecutionTime = 23.01 s  ClockTime = 23 s

Courant Number mean: 0.105161 max: 0.241753
Time = 0.495

GAMG:  Solving for cellDisplacementx, Initial residual = 0, Final residual = 0, No Iterations 0
GAMG:  Solving for cellDisplacementy, Initial residual = 0, Final residual = 0, No Iterations 0
GAMG:  Solving for cellDisplacementz, Initial residual = 0, Final residual = 0, No Iterations 0
PIMPLE: iteration 1
DILUPBiCG:  Solving for Ux, Initial residual = 0.035513, Final residual = 0.000131444, No Iterations 1
DILUPBiCG:  Solving for Uy, Initial residual = 0.00758212, Final residual = 1.47344e-05, No Iterations 1
DILUPBiCG:  Solving for Uz, Initial residual = 0.00933496, Final residual = 1.29665e-05, No Iterations 1
GAMG:  Solving for p, Initial residual = 0.0988412, Final residual = 0.000485663, No Iterations 4
GAMG:  Solving for p, Initial residual = 0.0123878, Final residual = 0.000107645, No Iterations 16
GAMG:  Solving for p, Initial residual = 0.00647712, Final residual = 5.37048e-05, No Iterations 4
time step continuity errors : sum local = 3.67973e-07, global = 1.35322e-07, cumulative = -3.10086e-07
GAMG:  Solving for p, Initial residual = 0.0465892, Final residual = 0.000237019, No Iterations 4
GAMG:  Solving for p, Initial residual = 0.0059389, Final residual = 5.13748e-05, No Iterations 16
GAMG:  Solving for p, Initial residual = 0.0032477, Final residual = 2.80092e-05, No Iterations 4
time step continuity errors : sum local = 1.93269e-07, global = 7.15752e-08, cumulative = -2.3851e-07
PIMPLE: iteration 2
DILUPBiCG:  Solving for Ux, Initial residual = 0.00865612, Final residual = 4.95846e-05, No Iterations 1
DILUPBiCG:  Solving for Uy, Initial residual = 0.00188965, Final residual = 3.68662e-06, No Iterations 1
DILUPBiCG:  Solving for Uz, Initial residual = 0.00266145, Final residual = 2.3085e-05, No Iterations 1
GAMG:  Solving for p, Initial residual = 0.043815, Final residual = 0.000330905, No Iterations 6
GAMG:  Solving for p, Initial residual = 0.0130289, Final residual = 0.000118933, No Iterations 12
GAMG:  Solving for p, Initial residual = 0.00422492, Final residual = 3.79007e-05, No Iterations 14
time step continuity errors : sum local = 2.27799e-07, global = -7.02185e-08, cumulative = -3.08729e-07
GAMG:  Solving for p, Initial residual = 0.0234932, Final residual = 0.000234503, No Iterations 5
GAMG:  Solving for p, Initial residual = 0.00716513, Final residual = 6.20302e-05, No Iterations 9
GAMG:  Solving for p, Initial residual = 0.00202886, Final residual = 2.00456e-05, No Iterations 14
time step continuity errors : sum local = 1.20553e-07, global = -3.64363e-08, cumulative = -3.45165e-07
PIMPLE: iteration 3
DILUPBiCG:  Solving for Ux, Initial residual = 0.00157277, Final residual = 8.16737e-06, No Iterations 2
DILUPBiCG:  Solving for Uy, Initial residual = 0.000369208, Final residual = 7.32279e-08, No Iterations 2
DILUPBiCG:  Solving for Uz, Initial residual = 0.00274621, Final residual = 3.73766e-06, No Iterations 2
GAMG:  Solving for p, Initial residual = 0.0525283, Final residual = 0.000387754, No Iterations 5
GAMG:  Solving for p, Initial residual = 0.0118007, Final residual = 0.000116067, No Iterations 14
GAMG:  Solving for p, Initial residual = 0.00656493, Final residual = 6.09098e-05, No Iterations 10
time step continuity errors : sum local = 4.05784e-07, global = -1.10953e-07, cumulative = -4.56118e-07
GAMG:  Solving for p, Initial residual = 0.00282294, Final residual = 2.79122e-05, No Iterations 7
GAMG:  Solving for p, Initial residual = 0.00143099, Final residual = 1.17351e-05, No Iterations 6
GAMG:  Solving for p, Initial residual = 0.000551387, Final residual = 9.6911e-07, No Iterations 28
time step continuity errors : sum local = 6.36018e-09, global = 1.94965e-09, cumulative = -4.54168e-07
DILUPBiCG:  Solving for omega, Initial residual = 0.0013236, Final residual = 6.94078e-07, No Iterations 1
DILUPBiCG:  Solving for k, Initial residual = 0.00333615, Final residual = 6.6362e-07, No Iterations 2
bounding k, min: 0 max: 0.000535837 average: 0.000148832
ExecutionTime = 28.32 s  ClockTime = 28 s

Courant Number mean: 0.103241 max: 0.237581
Time = 0.496

GAMG:  Solving for cellDisplacementx, Initial residual = 0, Final residual = 0, No Iterations 0
GAMG:  Solving for cellDisplacementy, Initial residual = 0, Final residual = 0, No Iterations 0
GAMG:  Solving for cellDisplacementz, Initial residual = 0, Final residual = 0, No Iterations 0
PIMPLE: iteration 1
DILUPBiCG:  Solving for Ux, Initial residual = 0.03071, Final residual = 0.000113606, No Iterations 1
DILUPBiCG:  Solving for Uy, Initial residual = 0.00658502, Final residual = 1.27538e-05, No Iterations 1
DILUPBiCG:  Solving for Uz, Initial residual = 0.00841982, Final residual = 1.00285e-05, No Iterations 1
GAMG:  Solving for p, Initial residual = 0.0946202, Final residual = 0.00043262, No Iterations 4
GAMG:  Solving for p, Initial residual = 0.0123201, Final residual = 0.000111525, No Iterations 8
GAMG:  Solving for p, Initial residual = 0.00634957, Final residual = 4.99131e-05, No Iterations 4
time step continuity errors : sum local = 2.9493e-07, global = 1.03945e-07, cumulative = -3.50223e-07
GAMG:  Solving for p, Initial residual = 0.0451806, Final residual = 0.000201942, No Iterations 4
GAMG:  Solving for p, Initial residual = 0.0059215, Final residual = 4.83396e-05, No Iterations 10
GAMG:  Solving for p, Initial residual = 0.00317516, Final residual = 2.43215e-05, No Iterations 4
time step continuity errors : sum local = 1.44774e-07, global = 4.80439e-08, cumulative = -3.02179e-07
PIMPLE: iteration 2
DILUPBiCG:  Solving for Ux, Initial residual = 0.00733066, Final residual = 4.24056e-05, No Iterations 1
DILUPBiCG:  Solving for Uy, Initial residual = 0.00161413, Final residual = 3.15978e-06, No Iterations 1
DILUPBiCG:  Solving for Uz, Initial residual = 0.00277598, Final residual = 4.29623e-05, No Iterations 1
GAMG:  Solving for p, Initial residual = 0.0419877, Final residual = 0.000346136, No Iterations 6
GAMG:  Solving for p, Initial residual = 0.0139805, Final residual = 0.000138907, No Iterations 10
GAMG:  Solving for p, Initial residual = 0.00400194, Final residual = 3.91415e-05, No Iterations 16
time step continuity errors : sum local = 2.0333e-07, global = -6.0345e-08, cumulative = -3.62524e-07
GAMG:  Solving for p, Initial residual = 0.0224858, Final residual = 0.000157997, No Iterations 6
GAMG:  Solving for p, Initial residual = 0.00739244, Final residual = 6.11875e-05, No Iterations 10
GAMG:  Solving for p, Initial residual = 0.00188614, Final residual = 1.73533e-05, No Iterations 16
time step continuity errors : sum local = 9.01239e-08, global = -2.64368e-08, cumulative = -3.88961e-07
PIMPLE: iteration 3
DILUPBiCG:  Solving for Ux, Initial residual = 0.00124358, Final residual = 1.69457e-06, No Iterations 2
DILUPBiCG:  Solving for Uy, Initial residual = 0.000305623, Final residual = 6.92116e-08, No Iterations 2
DILUPBiCG:  Solving for Uz, Initial residual = 0.0024954, Final residual = 1.81683e-06, No Iterations 2
GAMG:  Solving for p, Initial residual = 0.0564474, Final residual = 0.000395454, No Iterations 5
GAMG:  Solving for p, Initial residual = 0.0120242, Final residual = 0.000104005, No Iterations 16
GAMG:  Solving for p, Initial residual = 0.00703242, Final residual = 6.67493e-05, No Iterations 8
time step continuity errors : sum local = 3.8149e-07, global = -8.60826e-08, cumulative = -4.75044e-07
GAMG:  Solving for p, Initial residual = 0.00287577, Final residual = 2.76331e-05, No Iterations 7
GAMG:  Solving for p, Initial residual = 0.00152997, Final residual = 1.45169e-05, No Iterations 5
GAMG:  Solving for p, Initial residual = 0.000607199, Final residual = 8.61827e-07, No Iterations 31
time step continuity errors : sum local = 4.85623e-09, global = 1.45229e-09, cumulative = -4.73591e-07
DILUPBiCG:  Solving for omega, Initial residual = 0.00133132, Final residual = 6.86842e-07, No Iterations 1
DILUPBiCG:  Solving for k, Initial residual = 0.00329645, Final residual = 6.85972e-07, No Iterations 2
bounding k, min: 0 max: 0.000521476 average: 0.000148074
ExecutionTime = 33.71 s  ClockTime = 33 s

Courant Number mean: 0.10166 max: 0.234108
Time = 0.497

GAMG:  Solving for cellDisplacementx, Initial residual = 0, Final residual = 0, No Iterations 0
GAMG:  Solving for cellDisplacementy, Initial residual = 0, Final residual = 0, No Iterations 0
GAMG:  Solving for cellDisplacementz, Initial residual = 0, Final residual = 0, No Iterations 0
PIMPLE: iteration 1
DILUPBiCG:  Solving for Ux, Initial residual = 0.0255464, Final residual = 9.50207e-05, No Iterations 1
DILUPBiCG:  Solving for Uy, Initial residual = 0.00555247, Final residual = 1.07135e-05, No Iterations 1
DILUPBiCG:  Solving for Uz, Initial residual = 0.00818119, Final residual = 1.47331e-05, No Iterations 1
GAMG:  Solving for p, Initial residual = 0.09209, Final residual = 0.000696434, No Iterations 3
GAMG:  Solving for p, Initial residual = 0.011426, Final residual = 8.74508e-05, No Iterations 5
GAMG:  Solving for p, Initial residual = 0.00535462, Final residual = 4.28686e-05, No Iterations 4
time step continuity errors : sum local = 2.11577e-07, global = 8.25078e-08, cumulative = -3.91083e-07
GAMG:  Solving for p, Initial residual = 0.0448854, Final residual = 0.000341288, No Iterations 3
GAMG:  Solving for p, Initial residual = 0.00561979, Final residual = 5.11803e-05, No Iterations 7
GAMG:  Solving for p, Initial residual = 0.002728, Final residual = 2.2661e-05, No Iterations 4
time step continuity errors : sum local = 1.12636e-07, global = 4.25094e-08, cumulative = -3.48574e-07
PIMPLE: iteration 2
DILUPBiCG:  Solving for Ux, Initial residual = 0.00593077, Final residual = 3.48676e-05, No Iterations 1
DILUPBiCG:  Solving for Uy, Initial residual = 0.00131901, Final residual = 2.61936e-06, No Iterations 1
DILUPBiCG:  Solving for Uz, Initial residual = 0.00282934, Final residual = 4.65865e-05, No Iterations 1
GAMG:  Solving for p, Initial residual = 0.0412949, Final residual = 0.000360238, No Iterations 6
GAMG:  Solving for p, Initial residual = 0.017211, Final residual = 0.000170094, No Iterations 8
GAMG:  Solving for p, Initial residual = 0.00416683, Final residual = 4.01194e-05, No Iterations 18
time step continuity errors : sum local = 1.7411e-07, global = -4.91274e-08, cumulative = -3.97701e-07
GAMG:  Solving for p, Initial residual = 0.0218675, Final residual = 0.000165536, No Iterations 6
GAMG:  Solving for p, Initial residual = 0.00888762, Final residual = 7.80709e-05, No Iterations 7
GAMG:  Solving for p, Initial residual = 0.00197658, Final residual = 1.95193e-05, No Iterations 17
time step continuity errors : sum local = 8.44867e-08, global = -2.3591e-08, cumulative = -4.21292e-07
PIMPLE: iteration 3
DILUPBiCG:  Solving for Ux, Initial residual = 0.000914468, Final residual = 7.48966e-07, No Iterations 2
DILUPBiCG:  Solving for Uy, Initial residual = 0.000224582, Final residual = 5.58109e-06, No Iterations 1
DILUPBiCG:  Solving for Uz, Initial residual = 0.00202545, Final residual = 9.55853e-07, No Iterations 2
GAMG:  Solving for p, Initial residual = 0.061081, Final residual = 0.000421987, No Iterations 5
GAMG:  Solving for p, Initial residual = 0.0126356, Final residual = 0.000112774, No Iterations 16
GAMG:  Solving for p, Initial residual = 0.00790474, Final residual = 7.15227e-05, No Iterations 8
time step continuity errors : sum local = 3.38736e-07, global = -7.8744e-08, cumulative = -5.00036e-07
GAMG:  Solving for p, Initial residual = 0.0029675, Final residual = 2.8673e-05, No Iterations 7
GAMG:  Solving for p, Initial residual = 0.00156013, Final residual = 1.41182e-05, No Iterations 5
GAMG:  Solving for p, Initial residual = 0.000582439, Final residual = 9.6982e-07, No Iterations 29
time step continuity errors : sum local = 4.52551e-09, global = 1.37493e-09, cumulative = -4.98662e-07
DILUPBiCG:  Solving for omega, Initial residual = 0.00133542, Final residual = 6.80847e-07, No Iterations 1
DILUPBiCG:  Solving for k, Initial residual = 0.00325798, Final residual = 7.11589e-07, No Iterations 2
bounding k, min: 0 max: 0.000514411 average: 0.000147341
ExecutionTime = 39.26 s  ClockTime = 39 s

Courant Number mean: 0.10042 max: 0.231351
Time = 0.498

GAMG:  Solving for cellDisplacementx, Initial residual = 0, Final residual = 0, No Iterations 0
GAMG:  Solving for cellDisplacementy, Initial residual = 0, Final residual = 0, No Iterations 0
GAMG:  Solving for cellDisplacementz, Initial residual = 0, Final residual = 0, No Iterations 0
PIMPLE: iteration 1
DILUPBiCG:  Solving for Ux, Initial residual = 0.0201946, Final residual = 7.53123e-05, No Iterations 1
DILUPBiCG:  Solving for Uy, Initial residual = 0.00442259, Final residual = 8.52318e-06, No Iterations 1
DILUPBiCG:  Solving for Uz, Initial residual = 0.007672, Final residual = 1.28189e-05, No Iterations 1
GAMG:  Solving for p, Initial residual = 0.0873218, Final residual = 0.000358053, No Iterations 4
GAMG:  Solving for p, Initial residual = 0.0125822, Final residual = 0.00010325, No Iterations 10
GAMG:  Solving for p, Initial residual = 0.0059776, Final residual = 5.17485e-05, No Iterations 6
time step continuity errors : sum local = 2.04697e-07, global = -6.37202e-08, cumulative = -5.62382e-07
GAMG:  Solving for p, Initial residual = 0.0432354, Final residual = 0.000178678, No Iterations 4
GAMG:  Solving for p, Initial residual = 0.0064699, Final residual = 5.45026e-05, No Iterations 10
GAMG:  Solving for p, Initial residual = 0.00292689, Final residual = 2.72484e-05, No Iterations 6
time step continuity errors : sum local = 1.07841e-07, global = -3.11091e-08, cumulative = -5.93491e-07
PIMPLE: iteration 2
DILUPBiCG:  Solving for Ux, Initial residual = 0.00449489, Final residual = 2.73025e-05, No Iterations 1
DILUPBiCG:  Solving for Uy, Initial residual = 0.00101258, Final residual = 2.10785e-06, No Iterations 1
DILUPBiCG:  Solving for Uz, Initial residual = 0.00289425, Final residual = 7.06185e-05, No Iterations 1
GAMG:  Solving for p, Initial residual = 0.0396601, Final residual = 0.000395531, No Iterations 6
GAMG:  Solving for p, Initial residual = 0.0212234, Final residual = 0.000184443, No Iterations 8
GAMG:  Solving for p, Initial residual = 0.00439852, Final residual = 3.83746e-05, No Iterations 20
time step continuity errors : sum local = 1.32085e-07, global = -3.73355e-08, cumulative = -6.30826e-07
GAMG:  Solving for p, Initial residual = 0.0211282, Final residual = 0.000183588, No Iterations 6
GAMG:  Solving for p, Initial residual = 0.0105828, Final residual = 0.000101663, No Iterations 6
GAMG:  Solving for p, Initial residual = 0.00200804, Final residual = 1.94661e-05, No Iterations 20
time step continuity errors : sum local = 6.69015e-08, global = -1.89326e-08, cumulative = -6.49759e-07
PIMPLE: iteration 3
DILUPBiCG:  Solving for Ux, Initial residual = 0.000564759, Final residual = 6.85837e-06, No Iterations 1
DILUPBiCG:  Solving for Uy, Initial residual = 0.000151416, Final residual = 1.52984e-06, No Iterations 1
DILUPBiCG:  Solving for Uz, Initial residual = 0.00179336, Final residual = 7.95876e-07, No Iterations 2
GAMG:  Solving for p, Initial residual = 0.0695948, Final residual = 0.000451247, No Iterations 5
GAMG:  Solving for p, Initial residual = 0.0133591, Final residual = 0.000125632, No Iterations 16
GAMG:  Solving for p, Initial residual = 0.00910242, Final residual = 7.77215e-05, No Iterations 8
time step continuity errors : sum local = 2.88538e-07, global = -7.01338e-08, cumulative = -7.19893e-07
GAMG:  Solving for p, Initial residual = 0.00314704, Final residual = 3.13776e-05, No Iterations 7
GAMG:  Solving for p, Initial residual = 0.00167858, Final residual = 1.51515e-05, No Iterations 5
GAMG:  Solving for p, Initial residual = 0.000623866, Final residual = 8.62205e-07, No Iterations 31
time step continuity errors : sum local = 3.15289e-09, global = 9.51777e-10, cumulative = -7.18941e-07
DILUPBiCG:  Solving for omega, Initial residual = 0.00133613, Final residual = 6.76048e-07, No Iterations 1
DILUPBiCG:  Solving for k, Initial residual = 0.00322079, Final residual = 7.38849e-07, No Iterations 2
bounding k, min: 0 max: 0.000507078 average: 0.000146635
ExecutionTime = 45.08 s  ClockTime = 45 s

Courant Number mean: 0.09953 max: 0.229317
Time = 0.499

GAMG:  Solving for cellDisplacementx, Initial residual = 0, Final residual = 0, No Iterations 0
GAMG:  Solving for cellDisplacementy, Initial residual = 0, Final residual = 0, No Iterations 0
GAMG:  Solving for cellDisplacementz, Initial residual = 0, Final residual = 0, No Iterations 0
PIMPLE: iteration 1
DILUPBiCG:  Solving for Ux, Initial residual = 0.0146716, Final residual = 5.5115e-05, No Iterations 1
DILUPBiCG:  Solving for Uy, Initial residual = 0.00327724, Final residual = 6.33755e-06, No Iterations 1
DILUPBiCG:  Solving for Uz, Initial residual = 0.00844383, Final residual = 1.78216e-05, No Iterations 1
GAMG:  Solving for p, Initial residual = 0.0838161, Final residual = 0.000585047, No Iterations 4
GAMG:  Solving for p, Initial residual = 0.0199528, Final residual = 0.00016785, No Iterations 10
GAMG:  Solving for p, Initial residual = 0.00671291, Final residual = 6.22375e-05, No Iterations 12
time step continuity errors : sum local = 1.80079e-07, global = -5.15978e-08, cumulative = -7.70539e-07
GAMG:  Solving for p, Initial residual = 0.0428913, Final residual = 0.000274127, No Iterations 4
GAMG:  Solving for p, Initial residual = 0.0100719, Final residual = 8.25688e-05, No Iterations 10
GAMG:  Solving for p, Initial residual = 0.00321368, Final residual = 3.1208e-05, No Iterations 12
time step continuity errors : sum local = 9.01224e-08, global = -2.58439e-08, cumulative = -7.96382e-07
PIMPLE: iteration 2
DILUPBiCG:  Solving for Ux, Initial residual = 0.00300602, Final residual = 2.10362e-05, No Iterations 1
DILUPBiCG:  Solving for Uy, Initial residual = 0.000694833, Final residual = 1.76028e-06, No Iterations 1
DILUPBiCG:  Solving for Uz, Initial residual = 0.0029219, Final residual = 9.85821e-05, No Iterations 1
GAMG:  Solving for p, Initial residual = 0.0395446, Final residual = 0.000365965, No Iterations 8
GAMG:  Solving for p, Initial residual = 0.0278839, Final residual = 0.000234819, No Iterations 5
GAMG:  Solving for p, Initial residual = 0.00468456, Final residual = 4.23765e-05, No Iterations 21
time step continuity errors : sum local = 1.06607e-07, global = -3.03411e-08, cumulative = -8.26724e-07
GAMG:  Solving for p, Initial residual = 0.0212631, Final residual = 0.000172828, No Iterations 8
GAMG:  Solving for p, Initial residual = 0.0134432, Final residual = 0.000108542, No Iterations 5
GAMG:  Solving for p, Initial residual = 0.00227218, Final residual = 2.19621e-05, No Iterations 19
time step continuity errors : sum local = 5.51991e-08, global = -1.54854e-08, cumulative = -8.42209e-07
PIMPLE: iteration 3
DILUPBiCG:  Solving for Ux, Initial residual = 0.00022638, Final residual = 1.80976e-06, No Iterations 1
DILUPBiCG:  Solving for Uy, Initial residual = 7.83635e-05, Final residual = 4.52342e-07, No Iterations 1
DILUPBiCG:  Solving for Uz, Initial residual = 0.00140317, Final residual = 4.82547e-07, No Iterations 2
GAMG:  Solving for p, Initial residual = 0.0837441, Final residual = 0.00077915, No Iterations 3
GAMG:  Solving for p, Initial residual = 0.0141077, Final residual = 0.000127957, No Iterations 20
GAMG:  Solving for p, Initial residual = 0.0138538, Final residual = 0.000132034, No Iterations 4
time step continuity errors : sum local = 3.51014e-07, global = -5.84782e-08, cumulative = -9.00687e-07
GAMG:  Solving for p, Initial residual = 0.00373597, Final residual = 3.21913e-05, No Iterations 8
GAMG:  Solving for p, Initial residual = 0.00196943, Final residual = 1.93002e-05, No Iterations 4
GAMG:  Solving for p, Initial residual = 0.000672763, Final residual = 9.61632e-07, No Iterations 27
time step continuity errors : sum local = 2.51061e-09, global = 8.8492e-10, cumulative = -8.99802e-07
DILUPBiCG:  Solving for omega, Initial residual = 0.0013333, Final residual = 6.72583e-07, No Iterations 1
DILUPBiCG:  Solving for k, Initial residual = 0.00318484, Final residual = 7.6931e-07, No Iterations 2
bounding k, min: 0 max: 0.000499519 average: 0.000145955
ExecutionTime = 50.99 s  ClockTime = 51 s

Courant Number mean: 0.0989902 max: 0.228014
Time = 0.5

GAMG:  Solving for cellDisplacementx, Initial residual = 0, Final residual = 0, No Iterations 0
GAMG:  Solving for cellDisplacementy, Initial residual = 0, Final residual = 0, No Iterations 0
GAMG:  Solving for cellDisplacementz, Initial residual = 0, Final residual = 0, No Iterations 0
PIMPLE: iteration 1
DILUPBiCG:  Solving for Ux, Initial residual = 0.0091032, Final residual = 3.46406e-05, No Iterations 1
DILUPBiCG:  Solving for Uy, Initial residual = 0.00211407, Final residual = 4.16954e-06, No Iterations 1
DILUPBiCG:  Solving for Uz, Initial residual = 0.00885559, Final residual = 1.77075e-05, No Iterations 1
GAMG:  Solving for p, Initial residual = 0.0815878, Final residual = 0.000717165, No Iterations 6
GAMG:  Solving for p, Initial residual = 0.0473636, Final residual = 0.000393256, No Iterations 4
GAMG:  Solving for p, Initial residual = 0.00832773, Final residual = 7.34974e-05, No Iterations 21
time step continuity errors : sum local = 1.32507e-07, global = -3.79743e-08, cumulative = -9.37777e-07
GAMG:  Solving for p, Initial residual = 0.0444413, Final residual = 0.000411339, No Iterations 5
GAMG:  Solving for p, Initial residual = 0.0229444, Final residual = 0.00018324, No Iterations 4
GAMG:  Solving for p, Initial residual = 0.00421394, Final residual = 3.63732e-05, No Iterations 12
time step continuity errors : sum local = 6.48378e-08, global = -1.86291e-08, cumulative = -9.56406e-07
PIMPLE: iteration 2
DILUPBiCG:  Solving for Ux, Initial residual = 0.00150521, Final residual = 2.39357e-05, No Iterations 1
DILUPBiCG:  Solving for Uy, Initial residual = 0.000379008, Final residual = 5.91208e-06, No Iterations 1
DILUPBiCG:  Solving for Uz, Initial residual = 0.00286392, Final residual = 7.34919e-05, No Iterations 1
GAMG:  Solving for p, Initial residual = 0.0419916, Final residual = 0.000403556, No Iterations 11
GAMG:  Solving for p, Initial residual = 0.0354781, Final residual = 0.000303563, No Iterations 6
GAMG:  Solving for p, Initial residual = 0.00635422, Final residual = 6.23511e-05, No Iterations 20
time step continuity errors : sum local = 9.99154e-08, global = -2.83196e-08, cumulative = -9.84725e-07
GAMG:  Solving for p, Initial residual = 0.0232605, Final residual = 0.000212154, No Iterations 9
GAMG:  Solving for p, Initial residual = 0.0165233, Final residual = 0.000161713, No Iterations 6
GAMG:  Solving for p, Initial residual = 0.00319148, Final residual = 3.10926e-05, No Iterations 20
time step continuity errors : sum local = 4.96708e-08, global = -1.40658e-08, cumulative = -9.98791e-07
PIMPLE: iteration 3
DILUPBiCG:  Solving for Ux, Initial residual = 0.000189617, Final residual = 1.83774e-06, No Iterations 1
DILUPBiCG:  Solving for Uy, Initial residual = 7.15301e-05, Final residual = 6.84623e-07, No Iterations 1
DILUPBiCG:  Solving for Uz, Initial residual = 0.00113741, Final residual = 7.04209e-06, No Iterations 1
GAMG:  Solving for p, Initial residual = 0.116071, Final residual = 0.00105083, No Iterations 3
GAMG:  Solving for p, Initial residual = 0.0167842, Final residual = 0.00015824, No Iterations 20
GAMG:  Solving for p, Initial residual = 0.0180905, Final residual = 0.000175309, No Iterations 4
time step continuity errors : sum local = 2.78623e-07, global = -4.43939e-08, cumulative = -1.04319e-06
GAMG:  Solving for p, Initial residual = 0.00482726, Final residual = 3.86911e-05, No Iterations 8
GAMG:  Solving for p, Initial residual = 0.0024224, Final residual = 1.91575e-05, No Iterations 6
GAMG:  Solving for p, Initial residual = 0.000816462, Final residual = 9.88306e-07, No Iterations 23
time step continuity errors : sum local = 1.53432e-09, global = 5.4913e-10, cumulative = -1.04264e-06
DILUPBiCG:  Solving for omega, Initial residual = 0.00132711, Final residual = 6.70515e-07, No Iterations 1
DILUPBiCG:  Solving for k, Initial residual = 0.00315004, Final residual = 8.02275e-07, No Iterations 2
bounding k, min: 0 max: 0.000492408 average: 0.000145302
ExecutionTime = 56.93 s  ClockTime = 57 s

End

