/*---------------------------------------------------------------------------*\
| =========                 |                                                 |
| \\      /  F ield         | OpenFOAM: The Open Source CFD Toolbox           |
|  \\    /   O peration     | Version:  2.3.1                                 |
|   \\  /    A nd           | Web:      www.OpenFOAM.org                      |
|    \\/     M anipulation  |                                                 |
\*---------------------------------------------------------------------------*/
Build  : 2.3.1-262087cdf8db
Exec   : pimpleDyMFoam
Date   : Jun 04 2023
Time   : 16:56:39
Host   : "jcosson-VirtualBox"
PID    : 4418
Case   : /home/jcosson/workspace/henersj_shootingdata/calcs/moderate_deformed/primal/10_intervals_04-06-23/sweep5/interval9
nProcs : 1
sigFpe : Enabling floating point exception trapping (FOAM_SIGFPE).
fileModificationChecking : Monitoring run-time modified files using timeStampMaster
allowSystemOperations : Allowing user-supplied system call operations

// * * * * * * * * * * * * * * * * * * * * * * * * * * * * * * * * * * * * * //
Create time

Create mesh for time = 0.48

Selecting dynamicFvMesh dynamicMotionSolverFvMesh
Selecting motion solver: displacementLaplacian
Selecting motion diffusion: quadratic
Selecting motion diffusion: quadratic
Selecting motion diffusion: inverseDistance

PIMPLE: no residual control data found. Calculations will employ 3 corrector loops

Reading field p

Reading field U

Reading/calculating face flux field phi

Selecting incompressible transport model Newtonian
Selecting turbulence model type RASModel
Selecting RAS turbulence model kOmegaSST
bounding k, min: 0 max: 0.000740975 average: 0.000161033
kOmegaSSTCoeffs
{
    alphaK1         0.85034;
    alphaK2         1;
    alphaOmega1     0.5;
    alphaOmega2     0.85616;
    gamma1          0.5532;
    gamma2          0.4403;
    beta1           0.075;
    beta2           0.0828;
    betaStar        0.09;
    a1              0.31;
    c1              10;
    Cmu             0.09;
    b1              1;
    F3              false;
}

Reading/calculating face velocity Uf

No finite volume options present

Courant Number mean: 0.161232 max: 0.356714

Starting time loop

Courant Number mean: 0.161232 max: 0.356714
Time = 0.481

GAMG:  Solving for cellDisplacementx, Initial residual = 0, Final residual = 0, No Iterations 0
GAMG:  Solving for cellDisplacementy, Initial residual = 0, Final residual = 0, No Iterations 0
GAMG:  Solving for cellDisplacementz, Initial residual = 0, Final residual = 0, No Iterations 0
PIMPLE: iteration 1
DILUPBiCG:  Solving for Ux, Initial residual = 0.0640449, Final residual = 0.000250891, No Iterations 1
DILUPBiCG:  Solving for Uy, Initial residual = 0.0113858, Final residual = 2.41551e-05, No Iterations 1
DILUPBiCG:  Solving for Uz, Initial residual = 0.0107432, Final residual = 1.80054e-05, No Iterations 1
GAMG:  Solving for p, Initial residual = 0.12012, Final residual = 0.00114008, No Iterations 4
GAMG:  Solving for p, Initial residual = 0.0146176, Final residual = 0.000128904, No Iterations 20
GAMG:  Solving for p, Initial residual = 0.00678415, Final residual = 5.88708e-05, No Iterations 10
time step continuity errors : sum local = 8.87357e-07, global = 2.35568e-07, cumulative = 2.35568e-07
GAMG:  Solving for p, Initial residual = 0.052312, Final residual = 0.00044303, No Iterations 4
GAMG:  Solving for p, Initial residual = 0.00732331, Final residual = 7.28126e-05, No Iterations 16
GAMG:  Solving for p, Initial residual = 0.00342887, Final residual = 2.92894e-05, No Iterations 12
time step continuity errors : sum local = 4.42351e-07, global = 1.32156e-07, cumulative = 3.67724e-07
PIMPLE: iteration 2
DILUPBiCG:  Solving for Ux, Initial residual = 0.0175498, Final residual = 0.000104547, No Iterations 1
DILUPBiCG:  Solving for Uy, Initial residual = 0.00328137, Final residual = 6.86798e-06, No Iterations 1
DILUPBiCG:  Solving for Uz, Initial residual = 0.00283133, Final residual = 1.07826e-05, No Iterations 1
GAMG:  Solving for p, Initial residual = 0.0519571, Final residual = 0.000475901, No Iterations 4
GAMG:  Solving for p, Initial residual = 0.00903985, Final residual = 8.45151e-05, No Iterations 16
GAMG:  Solving for p, Initial residual = 0.00398563, Final residual = 3.52334e-05, No Iterations 10
time step continuity errors : sum local = 4.58916e-07, global = -1.18896e-07, cumulative = 2.48827e-07
GAMG:  Solving for p, Initial residual = 0.0269354, Final residual = 0.000214211, No Iterations 4
GAMG:  Solving for p, Initial residual = 0.00457657, Final residual = 4.04874e-05, No Iterations 14
GAMG:  Solving for p, Initial residual = 0.00188025, Final residual = 1.73714e-05, No Iterations 10
time step continuity errors : sum local = 2.27271e-07, global = -5.7807e-08, cumulative = 1.9102e-07
PIMPLE: iteration 3
DILUPBiCG:  Solving for Ux, Initial residual = 0.00403931, Final residual = 3.04927e-06, No Iterations 2
DILUPBiCG:  Solving for Uy, Initial residual = 0.00077092, Final residual = 5.45169e-06, No Iterations 1
DILUPBiCG:  Solving for Uz, Initial residual = 0.0061539, Final residual = 3.57878e-06, No Iterations 2
GAMG:  Solving for p, Initial residual = 0.0416213, Final residual = 0.00035671, No Iterations 5
GAMG:  Solving for p, Initial residual = 0.00954268, Final residual = 8.38942e-05, No Iterations 12
GAMG:  Solving for p, Initial residual = 0.00455023, Final residual = 4.00656e-05, No Iterations 10
time step continuity errors : sum local = 5.86176e-07, global = -1.5193e-07, cumulative = 3.909e-08
GAMG:  Solving for p, Initial residual = 0.00240081, Final residual = 2.21258e-05, No Iterations 14
GAMG:  Solving for p, Initial residual = 0.00129772, Final residual = 1.15044e-05, No Iterations 4
GAMG:  Solving for p, Initial residual = 0.000529647, Final residual = 8.94067e-07, No Iterations 30
time step continuity errors : sum local = 1.29781e-08, global = 3.86349e-09, cumulative = 4.29535e-08
DILUPBiCG:  Solving for omega, Initial residual = 0.000869624, Final residual = 7.37922e-07, No Iterations 1
DILUPBiCG:  Solving for k, Initial residual = 0.00399362, Final residual = 7.36786e-07, No Iterations 2
bounding k, min: 0 max: 0.000730352 average: 0.000159949
ExecutionTime = 7.67 s  ClockTime = 7 s

Courant Number mean: 0.15588 max: 0.345402
Time = 0.482

GAMG:  Solving for cellDisplacementx, Initial residual = 0, Final residual = 0, No Iterations 0
GAMG:  Solving for cellDisplacementy, Initial residual = 0, Final residual = 0, No Iterations 0
GAMG:  Solving for cellDisplacementz, Initial residual = 0, Final residual = 0, No Iterations 0
PIMPLE: iteration 1
DILUPBiCG:  Solving for Ux, Initial residual = 0.0643934, Final residual = 0.000250391, No Iterations 1
DILUPBiCG:  Solving for Uy, Initial residual = 0.0115725, Final residual = 2.43099e-05, No Iterations 1
DILUPBiCG:  Solving for Uz, Initial residual = 0.00951869, Final residual = 1.5882e-05, No Iterations 1
GAMG:  Solving for p, Initial residual = 0.111478, Final residual = 0.000750558, No Iterations 6
GAMG:  Solving for p, Initial residual = 0.0126903, Final residual = 0.000121831, No Iterations 18
GAMG:  Solving for p, Initial residual = 0.00587764, Final residual = 5.8576e-05, No Iterations 10
time step continuity errors : sum local = 8.69176e-07, global = 2.28558e-07, cumulative = 2.71512e-07
GAMG:  Solving for p, Initial residual = 0.0486988, Final residual = 0.000441214, No Iterations 4
GAMG:  Solving for p, Initial residual = 0.00642783, Final residual = 6.22554e-05, No Iterations 18
GAMG:  Solving for p, Initial residual = 0.00311583, Final residual = 3.04437e-05, No Iterations 10
time step continuity errors : sum local = 4.53055e-07, global = 1.1974e-07, cumulative = 3.91251e-07
PIMPLE: iteration 2
DILUPBiCG:  Solving for Ux, Initial residual = 0.0175253, Final residual = 0.000103915, No Iterations 1
DILUPBiCG:  Solving for Uy, Initial residual = 0.00331141, Final residual = 6.86406e-06, No Iterations 1
DILUPBiCG:  Solving for Uz, Initial residual = 0.00280562, Final residual = 1.0485e-05, No Iterations 1
GAMG:  Solving for p, Initial residual = 0.0476946, Final residual = 0.000303758, No Iterations 6
GAMG:  Solving for p, Initial residual = 0.00800998, Final residual = 7.53124e-05, No Iterations 16
GAMG:  Solving for p, Initial residual = 0.00330329, Final residual = 3.1634e-05, No Iterations 10
time step continuity errors : sum local = 4.06137e-07, global = -1.10097e-07, cumulative = 2.81155e-07
GAMG:  Solving for p, Initial residual = 0.0246899, Final residual = 0.000216091, No Iterations 4
GAMG:  Solving for p, Initial residual = 0.00398961, Final residual = 3.47233e-05, No Iterations 16
GAMG:  Solving for p, Initial residual = 0.00167103, Final residual = 1.50279e-05, No Iterations 10
time step continuity errors : sum local = 1.93886e-07, global = -5.08945e-08, cumulative = 2.3026e-07
PIMPLE: iteration 3
DILUPBiCG:  Solving for Ux, Initial residual = 0.00399667, Final residual = 3.0395e-06, No Iterations 2
DILUPBiCG:  Solving for Uy, Initial residual = 0.000776974, Final residual = 5.31004e-06, No Iterations 1
DILUPBiCG:  Solving for Uz, Initial residual = 0.00618417, Final residual = 3.74218e-06, No Iterations 2
GAMG:  Solving for p, Initial residual = 0.0413313, Final residual = 0.000354227, No Iterations 5
GAMG:  Solving for p, Initial residual = 0.00942117, Final residual = 8.17866e-05, No Iterations 12
GAMG:  Solving for p, Initial residual = 0.00454415, Final residual = 3.78821e-05, No Iterations 10
time step continuity errors : sum local = 5.46516e-07, global = -1.41716e-07, cumulative = 8.85439e-08
GAMG:  Solving for p, Initial residual = 0.00235967, Final residual = 2.26114e-05, No Iterations 14
GAMG:  Solving for p, Initial residual = 0.00128436, Final residual = 1.14766e-05, No Iterations 4
GAMG:  Solving for p, Initial residual = 0.000530295, Final residual = 9.09016e-07, No Iterations 30
time step continuity errors : sum local = 1.30069e-08, global = 3.87035e-09, cumulative = 9.24142e-08
DILUPBiCG:  Solving for omega, Initial residual = 0.000910848, Final residual = 7.44725e-07, No Iterations 1
DILUPBiCG:  Solving for k, Initial residual = 0.00394143, Final residual = 7.06693e-07, No Iterations 2
bounding k, min: 0 max: 0.00071895 average: 0.00015888
ExecutionTime = 14.08 s  ClockTime = 14 s

Courant Number mean: 0.150666 max: 0.33436
Time = 0.483

GAMG:  Solving for cellDisplacementx, Initial residual = 0, Final residual = 0, No Iterations 0
GAMG:  Solving for cellDisplacementy, Initial residual = 0, Final residual = 0, No Iterations 0
GAMG:  Solving for cellDisplacementz, Initial residual = 0, Final residual = 0, No Iterations 0
PIMPLE: iteration 1
DILUPBiCG:  Solving for Ux, Initial residual = 0.064418, Final residual = 0.000248943, No Iterations 1
DILUPBiCG:  Solving for Uy, Initial residual = 0.0117312, Final residual = 2.44472e-05, No Iterations 1
DILUPBiCG:  Solving for Uz, Initial residual = 0.0097092, Final residual = 1.44849e-05, No Iterations 1
GAMG:  Solving for p, Initial residual = 0.111313, Final residual = 0.00106206, No Iterations 4
GAMG:  Solving for p, Initial residual = 0.0128076, Final residual = 0.00012417, No Iterations 20
GAMG:  Solving for p, Initial residual = 0.00621444, Final residual = 5.18353e-05, No Iterations 10
time step continuity errors : sum local = 7.54813e-07, global = 1.98946e-07, cumulative = 2.9136e-07
GAMG:  Solving for p, Initial residual = 0.0487009, Final residual = 0.000415619, No Iterations 4
GAMG:  Solving for p, Initial residual = 0.00643384, Final residual = 6.05025e-05, No Iterations 18
GAMG:  Solving for p, Initial residual = 0.00312903, Final residual = 2.7102e-05, No Iterations 10
time step continuity errors : sum local = 3.95917e-07, global = 1.04547e-07, cumulative = 3.95907e-07
PIMPLE: iteration 2
DILUPBiCG:  Solving for Ux, Initial residual = 0.0174244, Final residual = 0.000102698, No Iterations 1
DILUPBiCG:  Solving for Uy, Initial residual = 0.00332926, Final residual = 6.85529e-06, No Iterations 1
DILUPBiCG:  Solving for Uz, Initial residual = 0.00269481, Final residual = 1.01355e-05, No Iterations 1
GAMG:  Solving for p, Initial residual = 0.047624, Final residual = 0.000295945, No Iterations 6
GAMG:  Solving for p, Initial residual = 0.00822289, Final residual = 7.57698e-05, No Iterations 16
GAMG:  Solving for p, Initial residual = 0.00337367, Final residual = 3.03601e-05, No Iterations 10
time step continuity errors : sum local = 3.82778e-07, global = -1.00983e-07, cumulative = 2.94923e-07
GAMG:  Solving for p, Initial residual = 0.0247648, Final residual = 0.000216203, No Iterations 4
GAMG:  Solving for p, Initial residual = 0.00414718, Final residual = 4.13222e-05, No Iterations 14
GAMG:  Solving for p, Initial residual = 0.0016856, Final residual = 1.43931e-05, No Iterations 12
time step continuity errors : sum local = 1.82368e-07, global = -5.22606e-08, cumulative = 2.42663e-07
PIMPLE: iteration 3
DILUPBiCG:  Solving for Ux, Initial residual = 0.00393969, Final residual = 3.00233e-06, No Iterations 2
DILUPBiCG:  Solving for Uy, Initial residual = 0.000773271, Final residual = 5.1968e-06, No Iterations 1
DILUPBiCG:  Solving for Uz, Initial residual = 0.00582836, Final residual = 3.00948e-06, No Iterations 2
GAMG:  Solving for p, Initial residual = 0.0415317, Final residual = 0.000342455, No Iterations 5
GAMG:  Solving for p, Initial residual = 0.00945055, Final residual = 8.13393e-05, No Iterations 14
GAMG:  Solving for p, Initial residual = 0.00462533, Final residual = 3.97831e-05, No Iterations 10
time step continuity errors : sum local = 5.63876e-07, global = -1.46417e-07, cumulative = 9.62461e-08
GAMG:  Solving for p, Initial residual = 0.00236846, Final residual = 2.30042e-05, No Iterations 13
GAMG:  Solving for p, Initial residual = 0.00127872, Final residual = 9.55215e-06, No Iterations 5
GAMG:  Solving for p, Initial residual = 0.000521283, Final residual = 9.64826e-07, No Iterations 28
time step continuity errors : sum local = 1.35622e-08, global = 4.06039e-09, cumulative = 1.00307e-07
DILUPBiCG:  Solving for omega, Initial residual = 0.000951479, Final residual = 7.49294e-07, No Iterations 1
DILUPBiCG:  Solving for k, Initial residual = 0.00388407, Final residual = 6.97624e-07, No Iterations 2
bounding k, min: 0 max: 0.000706832 average: 0.000157832
ExecutionTime = 20.44 s  ClockTime = 20 s

Courant Number mean: 0.145599 max: 0.323636
Time = 0.484

GAMG:  Solving for cellDisplacementx, Initial residual = 0, Final residual = 0, No Iterations 0
GAMG:  Solving for cellDisplacementy, Initial residual = 0, Final residual = 0, No Iterations 0
GAMG:  Solving for cellDisplacementz, Initial residual = 0, Final residual = 0, No Iterations 0
PIMPLE: iteration 1
DILUPBiCG:  Solving for Ux, Initial residual = 0.0641853, Final residual = 0.000246242, No Iterations 1
DILUPBiCG:  Solving for Uy, Initial residual = 0.0118282, Final residual = 2.44702e-05, No Iterations 1
DILUPBiCG:  Solving for Uz, Initial residual = 0.00998712, Final residual = 1.4115e-05, No Iterations 1
GAMG:  Solving for p, Initial residual = 0.110192, Final residual = 0.0010533, No Iterations 4
GAMG:  Solving for p, Initial residual = 0.012879, Final residual = 0.000121876, No Iterations 20
GAMG:  Solving for p, Initial residual = 0.00625433, Final residual = 5.13799e-05, No Iterations 10
time step continuity errors : sum local = 7.29807e-07, global = 1.87434e-07, cumulative = 2.8774e-07
GAMG:  Solving for p, Initial residual = 0.048479, Final residual = 0.000413722, No Iterations 4
GAMG:  Solving for p, Initial residual = 0.00646071, Final residual = 6.00704e-05, No Iterations 18
GAMG:  Solving for p, Initial residual = 0.00315471, Final residual = 2.75143e-05, No Iterations 10
time step continuity errors : sum local = 3.92089e-07, global = 1.01114e-07, cumulative = 3.88854e-07
PIMPLE: iteration 2
DILUPBiCG:  Solving for Ux, Initial residual = 0.0172277, Final residual = 0.00010108, No Iterations 1
DILUPBiCG:  Solving for Uy, Initial residual = 0.00333036, Final residual = 6.80542e-06, No Iterations 1
DILUPBiCG:  Solving for Uz, Initial residual = 0.00272037, Final residual = 1.00606e-05, No Iterations 1
GAMG:  Solving for p, Initial residual = 0.0472954, Final residual = 0.000305482, No Iterations 6
GAMG:  Solving for p, Initial residual = 0.00819669, Final residual = 7.51927e-05, No Iterations 16
GAMG:  Solving for p, Initial residual = 0.00333701, Final residual = 3.15934e-05, No Iterations 10
time step continuity errors : sum local = 3.89349e-07, global = -1.0372e-07, cumulative = 2.85134e-07
GAMG:  Solving for p, Initial residual = 0.0245372, Final residual = 0.000219605, No Iterations 4
GAMG:  Solving for p, Initial residual = 0.00409422, Final residual = 3.51564e-05, No Iterations 16
GAMG:  Solving for p, Initial residual = 0.00170229, Final residual = 1.49692e-05, No Iterations 10
time step continuity errors : sum local = 1.85326e-07, global = -4.80445e-08, cumulative = 2.3709e-07
PIMPLE: iteration 3
DILUPBiCG:  Solving for Ux, Initial residual = 0.00385262, Final residual = 2.98053e-06, No Iterations 2
DILUPBiCG:  Solving for Uy, Initial residual = 0.000775517, Final residual = 5.06232e-06, No Iterations 1
DILUPBiCG:  Solving for Uz, Initial residual = 0.00584164, Final residual = 3.25821e-06, No Iterations 2
GAMG:  Solving for p, Initial residual = 0.0420514, Final residual = 0.000338925, No Iterations 5
GAMG:  Solving for p, Initial residual = 0.00953343, Final residual = 8.03476e-05, No Iterations 14
GAMG:  Solving for p, Initial residual = 0.00471504, Final residual = 4.70687e-05, No Iterations 8
time step continuity errors : sum local = 6.51593e-07, global = -1.44762e-07, cumulative = 9.23281e-08
GAMG:  Solving for p, Initial residual = 0.00238403, Final residual = 1.94019e-05, No Iterations 12
GAMG:  Solving for p, Initial residual = 0.00129605, Final residual = 1.16406e-05, No Iterations 4
GAMG:  Solving for p, Initial residual = 0.000533464, Final residual = 9.28346e-07, No Iterations 30
time step continuity errors : sum local = 1.27336e-08, global = 3.81734e-09, cumulative = 9.61454e-08
DILUPBiCG:  Solving for omega, Initial residual = 0.000991231, Final residual = 7.51319e-07, No Iterations 1
DILUPBiCG:  Solving for k, Initial residual = 0.00382533, Final residual = 6.97168e-07, No Iterations 2
bounding k, min: 0 max: 0.000694063 average: 0.000156806
ExecutionTime = 26.71 s  ClockTime = 26 s

Courant Number mean: 0.140711 max: 0.313269
Time = 0.485

GAMG:  Solving for cellDisplacementx, Initial residual = 0, Final residual = 0, No Iterations 0
GAMG:  Solving for cellDisplacementy, Initial residual = 0, Final residual = 0, No Iterations 0
GAMG:  Solving for cellDisplacementz, Initial residual = 0, Final residual = 0, No Iterations 0
PIMPLE: iteration 1
DILUPBiCG:  Solving for Ux, Initial residual = 0.0634896, Final residual = 0.000242544, No Iterations 1
DILUPBiCG:  Solving for Uy, Initial residual = 0.0118837, Final residual = 2.44108e-05, No Iterations 1
DILUPBiCG:  Solving for Uz, Initial residual = 0.0103153, Final residual = 1.2948e-05, No Iterations 1
GAMG:  Solving for p, Initial residual = 0.110251, Final residual = 0.00097412, No Iterations 4
GAMG:  Solving for p, Initial residual = 0.0129922, Final residual = 0.000120027, No Iterations 20
GAMG:  Solving for p, Initial residual = 0.00637308, Final residual = 5.32007e-05, No Iterations 4
time step continuity errors : sum local = 7.34805e-07, global = 2.52579e-07, cumulative = 3.48725e-07
GAMG:  Solving for p, Initial residual = 0.0486299, Final residual = 0.000398076, No Iterations 4
GAMG:  Solving for p, Initial residual = 0.00652673, Final residual = 5.95094e-05, No Iterations 18
GAMG:  Solving for p, Initial residual = 0.00319717, Final residual = 2.9375e-05, No Iterations 4
time step continuity errors : sum local = 4.0735e-07, global = 1.39182e-07, cumulative = 4.87906e-07
PIMPLE: iteration 2
DILUPBiCG:  Solving for Ux, Initial residual = 0.0169347, Final residual = 9.88982e-05, No Iterations 1
DILUPBiCG:  Solving for Uy, Initial residual = 0.00331076, Final residual = 6.72043e-06, No Iterations 1
DILUPBiCG:  Solving for Uz, Initial residual = 0.00262151, Final residual = 9.70672e-06, No Iterations 1
GAMG:  Solving for p, Initial residual = 0.0473323, Final residual = 0.000292695, No Iterations 6
GAMG:  Solving for p, Initial residual = 0.0084544, Final residual = 7.62535e-05, No Iterations 16
GAMG:  Solving for p, Initial residual = 0.00351247, Final residual = 3.36677e-05, No Iterations 8
time step continuity errors : sum local = 4.03794e-07, global = -9.91677e-08, cumulative = 3.88739e-07
GAMG:  Solving for p, Initial residual = 0.0247155, Final residual = 0.000217407, No Iterations 4
GAMG:  Solving for p, Initial residual = 0.00435642, Final residual = 4.24434e-05, No Iterations 14
GAMG:  Solving for p, Initial residual = 0.00175852, Final residual = 1.63588e-05, No Iterations 10
time step continuity errors : sum local = 1.97079e-07, global = -4.9707e-08, cumulative = 3.39032e-07
PIMPLE: iteration 3
DILUPBiCG:  Solving for Ux, Initial residual = 0.00377659, Final residual = 2.90591e-06, No Iterations 2
DILUPBiCG:  Solving for Uy, Initial residual = 0.00076524, Final residual = 4.95e-06, No Iterations 1
DILUPBiCG:  Solving for Uz, Initial residual = 0.00542998, Final residual = 2.44355e-06, No Iterations 2
GAMG:  Solving for p, Initial residual = 0.0422808, Final residual = 0.000332209, No Iterations 5
GAMG:  Solving for p, Initial residual = 0.00959563, Final residual = 8.82004e-05, No Iterations 14
GAMG:  Solving for p, Initial residual = 0.0047852, Final residual = 4.56578e-05, No Iterations 10
time step continuity errors : sum local = 6.15419e-07, global = -1.61078e-07, cumulative = 1.77954e-07
GAMG:  Solving for p, Initial residual = 0.00239072, Final residual = 2.09381e-05, No Iterations 6
GAMG:  Solving for p, Initial residual = 0.00125575, Final residual = 1.12991e-05, No Iterations 4
GAMG:  Solving for p, Initial residual = 0.000517471, Final residual = 8.6584e-07, No Iterations 32
time step continuity errors : sum local = 1.15519e-08, global = 3.39992e-09, cumulative = 1.81354e-07
DILUPBiCG:  Solving for omega, Initial residual = 0.00102923, Final residual = 7.51131e-07, No Iterations 1
DILUPBiCG:  Solving for k, Initial residual = 0.00376418, Final residual = 6.97783e-07, No Iterations 2
bounding k, min: 0 max: 0.000680715 average: 0.000155804
ExecutionTime = 32.61 s  ClockTime = 32 s

Courant Number mean: 0.136009 max: 0.303303
Time = 0.486

GAMG:  Solving for cellDisplacementx, Initial residual = 0, Final residual = 0, No Iterations 0
GAMG:  Solving for cellDisplacementy, Initial residual = 0, Final residual = 0, No Iterations 0
GAMG:  Solving for cellDisplacementz, Initial residual = 0, Final residual = 0, No Iterations 0
PIMPLE: iteration 1
DILUPBiCG:  Solving for Ux, Initial residual = 0.062598, Final residual = 0.000237478, No Iterations 1
DILUPBiCG:  Solving for Uy, Initial residual = 0.0118473, Final residual = 2.41737e-05, No Iterations 1
DILUPBiCG:  Solving for Uz, Initial residual = 0.0106148, Final residual = 1.26955e-05, No Iterations 1
GAMG:  Solving for p, Initial residual = 0.108946, Final residual = 0.000969951, No Iterations 4
GAMG:  Solving for p, Initial residual = 0.0130674, Final residual = 0.000117688, No Iterations 20
GAMG:  Solving for p, Initial residual = 0.00640232, Final residual = 5.39724e-05, No Iterations 4
time step continuity errors : sum local = 7.19612e-07, global = 2.55143e-07, cumulative = 4.36497e-07
GAMG:  Solving for p, Initial residual = 0.0483432, Final residual = 0.000395808, No Iterations 4
GAMG:  Solving for p, Initial residual = 0.00655482, Final residual = 5.89098e-05, No Iterations 18
GAMG:  Solving for p, Initial residual = 0.00321653, Final residual = 2.90174e-05, No Iterations 4
time step continuity errors : sum local = 3.88363e-07, global = 1.45015e-07, cumulative = 5.81511e-07
PIMPLE: iteration 2
DILUPBiCG:  Solving for Ux, Initial residual = 0.0165513, Final residual = 9.63301e-05, No Iterations 1
DILUPBiCG:  Solving for Uy, Initial residual = 0.0032758, Final residual = 6.60573e-06, No Iterations 1
DILUPBiCG:  Solving for Uz, Initial residual = 0.00266168, Final residual = 9.70198e-06, No Iterations 1
GAMG:  Solving for p, Initial residual = 0.0469407, Final residual = 0.000306462, No Iterations 6
GAMG:  Solving for p, Initial residual = 0.0084159, Final residual = 7.50606e-05, No Iterations 16
GAMG:  Solving for p, Initial residual = 0.00339857, Final residual = 3.10941e-05, No Iterations 10
time step continuity errors : sum local = 3.60741e-07, global = -9.52623e-08, cumulative = 4.86249e-07
GAMG:  Solving for p, Initial residual = 0.0244008, Final residual = 0.000220401, No Iterations 4
GAMG:  Solving for p, Initial residual = 0.00422394, Final residual = 4.18392e-05, No Iterations 14
GAMG:  Solving for p, Initial residual = 0.00173239, Final residual = 1.43564e-05, No Iterations 12
time step continuity errors : sum local = 1.67322e-07, global = -4.91205e-08, cumulative = 4.37129e-07
PIMPLE: iteration 3
DILUPBiCG:  Solving for Ux, Initial residual = 0.00363803, Final residual = 2.86634e-06, No Iterations 2
DILUPBiCG:  Solving for Uy, Initial residual = 0.000759867, Final residual = 4.85368e-06, No Iterations 1
DILUPBiCG:  Solving for Uz, Initial residual = 0.00545356, Final residual = 2.78587e-06, No Iterations 2
GAMG:  Solving for p, Initial residual = 0.0429829, Final residual = 0.000324658, No Iterations 5
GAMG:  Solving for p, Initial residual = 0.0096963, Final residual = 8.80561e-05, No Iterations 14
GAMG:  Solving for p, Initial residual = 0.0049121, Final residual = 4.43122e-05, No Iterations 10
time step continuity errors : sum local = 5.77144e-07, global = -1.51375e-07, cumulative = 2.85753e-07
GAMG:  Solving for p, Initial residual = 0.00242852, Final residual = 2.17489e-05, No Iterations 6
GAMG:  Solving for p, Initial residual = 0.00129318, Final residual = 1.23333e-05, No Iterations 4
GAMG:  Solving for p, Initial residual = 0.000541168, Final residual = 8.59226e-07, No Iterations 36
time step continuity errors : sum local = 1.10675e-08, global = 3.24829e-09, cumulative = 2.89001e-07
DILUPBiCG:  Solving for omega, Initial residual = 0.00106636, Final residual = 7.48556e-07, No Iterations 1
DILUPBiCG:  Solving for k, Initial residual = 0.00370471, Final residual = 6.92291e-07, No Iterations 2
bounding k, min: 0 max: 0.00066686 average: 0.000154829
ExecutionTime = 38.38 s  ClockTime = 38 s

Courant Number mean: 0.131527 max: 0.293772
Time = 0.487

GAMG:  Solving for cellDisplacementx, Initial residual = 0, Final residual = 0, No Iterations 0
GAMG:  Solving for cellDisplacementy, Initial residual = 0, Final residual = 0, No Iterations 0
GAMG:  Solving for cellDisplacementz, Initial residual = 0, Final residual = 0, No Iterations 0
PIMPLE: iteration 1
DILUPBiCG:  Solving for Ux, Initial residual = 0.0611011, Final residual = 0.000231387, No Iterations 1
DILUPBiCG:  Solving for Uy, Initial residual = 0.0117707, Final residual = 2.38752e-05, No Iterations 1
DILUPBiCG:  Solving for Uz, Initial residual = 0.0109575, Final residual = 1.18161e-05, No Iterations 1
GAMG:  Solving for p, Initial residual = 0.109089, Final residual = 0.000877438, No Iterations 4
GAMG:  Solving for p, Initial residual = 0.0131783, Final residual = 0.000116263, No Iterations 20
GAMG:  Solving for p, Initial residual = 0.00654121, Final residual = 5.35592e-05, No Iterations 4
time step continuity errors : sum local = 6.87177e-07, global = 2.25739e-07, cumulative = 5.1474e-07
GAMG:  Solving for p, Initial residual = 0.0485013, Final residual = 0.000360609, No Iterations 4
GAMG:  Solving for p, Initial residual = 0.00657801, Final residual = 5.81732e-05, No Iterations 18
GAMG:  Solving for p, Initial residual = 0.00326934, Final residual = 2.7287e-05, No Iterations 4
time step continuity errors : sum local = 3.5171e-07, global = 1.16469e-07, cumulative = 6.31209e-07
PIMPLE: iteration 2
DILUPBiCG:  Solving for Ux, Initial residual = 0.0160854, Final residual = 9.32192e-05, No Iterations 1
DILUPBiCG:  Solving for Uy, Initial residual = 0.00321989, Final residual = 6.45742e-06, No Iterations 1
DILUPBiCG:  Solving for Uz, Initial residual = 0.00255215, Final residual = 9.17524e-06, No Iterations 1
GAMG:  Solving for p, Initial residual = 0.0470231, Final residual = 0.00029376, No Iterations 6
GAMG:  Solving for p, Initial residual = 0.0088411, Final residual = 7.7415e-05, No Iterations 16
GAMG:  Solving for p, Initial residual = 0.00369392, Final residual = 3.34871e-05, No Iterations 6
time step continuity errors : sum local = 3.73879e-07, global = -1.02435e-07, cumulative = 5.28774e-07
GAMG:  Solving for p, Initial residual = 0.0247063, Final residual = 0.000224694, No Iterations 4
GAMG:  Solving for p, Initial residual = 0.00467677, Final residual = 4.40347e-05, No Iterations 14
GAMG:  Solving for p, Initial residual = 0.00185239, Final residual = 1.50934e-05, No Iterations 10
time step continuity errors : sum local = 1.69199e-07, global = -4.307e-08, cumulative = 4.85704e-07
PIMPLE: iteration 3
DILUPBiCG:  Solving for Ux, Initial residual = 0.00350626, Final residual = 2.77139e-06, No Iterations 2
DILUPBiCG:  Solving for Uy, Initial residual = 0.000733001, Final residual = 4.8356e-06, No Iterations 1
DILUPBiCG:  Solving for Uz, Initial residual = 0.00504446, Final residual = 2.02182e-06, No Iterations 2
GAMG:  Solving for p, Initial residual = 0.0431984, Final residual = 0.00033539, No Iterations 5
GAMG:  Solving for p, Initial residual = 0.00985718, Final residual = 9.25681e-05, No Iterations 14
GAMG:  Solving for p, Initial residual = 0.00495982, Final residual = 4.85034e-05, No Iterations 10
time step continuity errors : sum local = 6.08388e-07, global = -1.60097e-07, cumulative = 3.25607e-07
GAMG:  Solving for p, Initial residual = 0.00243021, Final residual = 1.94096e-05, No Iterations 8
GAMG:  Solving for p, Initial residual = 0.00128236, Final residual = 9.2913e-06, No Iterations 5
GAMG:  Solving for p, Initial residual = 0.000517027, Final residual = 9.20642e-07, No Iterations 28
time step continuity errors : sum local = 1.14278e-08, global = 3.43348e-09, cumulative = 3.29041e-07
DILUPBiCG:  Solving for omega, Initial residual = 0.00110126, Final residual = 7.44395e-07, No Iterations 1
DILUPBiCG:  Solving for k, Initial residual = 0.00364484, Final residual = 6.77557e-07, No Iterations 2
bounding k, min: 0 max: 0.000654039 average: 0.000153881
ExecutionTime = 44.08 s  ClockTime = 44 s

Courant Number mean: 0.127265 max: 0.284719
Time = 0.488

GAMG:  Solving for cellDisplacementx, Initial residual = 0, Final residual = 0, No Iterations 0
GAMG:  Solving for cellDisplacementy, Initial residual = 0, Final residual = 0, No Iterations 0
GAMG:  Solving for cellDisplacementz, Initial residual = 0, Final residual = 0, No Iterations 0
PIMPLE: iteration 1
DILUPBiCG:  Solving for Ux, Initial residual = 0.0594707, Final residual = 0.000223787, No Iterations 1
DILUPBiCG:  Solving for Uy, Initial residual = 0.0115721, Final residual = 2.33482e-05, No Iterations 1
DILUPBiCG:  Solving for Uz, Initial residual = 0.0111445, Final residual = 1.16202e-05, No Iterations 1
GAMG:  Solving for p, Initial residual = 0.107431, Final residual = 0.000877487, No Iterations 4
GAMG:  Solving for p, Initial residual = 0.0132081, Final residual = 0.000113673, No Iterations 20
GAMG:  Solving for p, Initial residual = 0.00654054, Final residual = 5.86088e-05, No Iterations 4
time step continuity errors : sum local = 7.17173e-07, global = 2.65554e-07, cumulative = 5.94595e-07
GAMG:  Solving for p, Initial residual = 0.0480781, Final residual = 0.000359438, No Iterations 4
GAMG:  Solving for p, Initial residual = 0.00659058, Final residual = 5.71734e-05, No Iterations 18
GAMG:  Solving for p, Initial residual = 0.00327885, Final residual = 2.80809e-05, No Iterations 4
time step continuity errors : sum local = 3.45071e-07, global = 1.21111e-07, cumulative = 7.15706e-07
PIMPLE: iteration 2
DILUPBiCG:  Solving for Ux, Initial residual = 0.0155044, Final residual = 8.97447e-05, No Iterations 1
DILUPBiCG:  Solving for Uy, Initial residual = 0.00314287, Final residual = 6.26698e-06, No Iterations 1
DILUPBiCG:  Solving for Uz, Initial residual = 0.00260417, Final residual = 8.87053e-06, No Iterations 1
GAMG:  Solving for p, Initial residual = 0.0464683, Final residual = 0.000311313, No Iterations 6
GAMG:  Solving for p, Initial residual = 0.00879433, Final residual = 7.58152e-05, No Iterations 16
GAMG:  Solving for p, Initial residual = 0.0035101, Final residual = 3.08194e-05, No Iterations 10
time step continuity errors : sum local = 3.28907e-07, global = -8.64251e-08, cumulative = 6.29281e-07
GAMG:  Solving for p, Initial residual = 0.0242584, Final residual = 0.000225994, No Iterations 4
GAMG:  Solving for p, Initial residual = 0.00443468, Final residual = 4.29323e-05, No Iterations 14
GAMG:  Solving for p, Initial residual = 0.00180964, Final residual = 1.69966e-05, No Iterations 10
time step continuity errors : sum local = 1.82158e-07, global = -4.64781e-08, cumulative = 5.82803e-07
PIMPLE: iteration 3
DILUPBiCG:  Solving for Ux, Initial residual = 0.00332246, Final residual = 2.73933e-06, No Iterations 2
DILUPBiCG:  Solving for Uy, Initial residual = 0.000719775, Final residual = 4.76367e-06, No Iterations 1
DILUPBiCG:  Solving for Uz, Initial residual = 0.005052, Final residual = 2.44679e-06, No Iterations 2
GAMG:  Solving for p, Initial residual = 0.0441089, Final residual = 0.00032531, No Iterations 5
GAMG:  Solving for p, Initial residual = 0.00995895, Final residual = 9.37525e-05, No Iterations 14
GAMG:  Solving for p, Initial residual = 0.00513228, Final residual = 4.8413e-05, No Iterations 10
time step continuity errors : sum local = 5.79557e-07, global = -1.53285e-07, cumulative = 4.29518e-07
GAMG:  Solving for p, Initial residual = 0.00248257, Final residual = 2.43781e-05, No Iterations 7
GAMG:  Solving for p, Initial residual = 0.00133066, Final residual = 1.04007e-05, No Iterations 6
GAMG:  Solving for p, Initial residual = 0.000548245, Final residual = 8.84783e-07, No Iterations 30
time step continuity errors : sum local = 1.04688e-08, global = 3.16307e-09, cumulative = 4.32681e-07
DILUPBiCG:  Solving for omega, Initial residual = 0.00113471, Final residual = 7.38527e-07, No Iterations 1
DILUPBiCG:  Solving for k, Initial residual = 0.00358738, Final residual = 6.5693e-07, No Iterations 2
bounding k, min: 0 max: 0.000641291 average: 0.000152962
ExecutionTime = 49.88 s  ClockTime = 49 s

Courant Number mean: 0.123257 max: 0.276173
Time = 0.489

GAMG:  Solving for cellDisplacementx, Initial residual = 0, Final residual = 0, No Iterations 0
GAMG:  Solving for cellDisplacementy, Initial residual = 0, Final residual = 0, No Iterations 0
GAMG:  Solving for cellDisplacementz, Initial residual = 0, Final residual = 0, No Iterations 0
PIMPLE: iteration 1
DILUPBiCG:  Solving for Ux, Initial residual = 0.0571177, Final residual = 0.00021519, No Iterations 1
DILUPBiCG:  Solving for Uy, Initial residual = 0.0113236, Final residual = 2.27207e-05, No Iterations 1
DILUPBiCG:  Solving for Uz, Initial residual = 0.0113943, Final residual = 1.10845e-05, No Iterations 1
GAMG:  Solving for p, Initial residual = 0.107522, Final residual = 0.000771442, No Iterations 4
GAMG:  Solving for p, Initial residual = 0.0132554, Final residual = 0.000131724, No Iterations 18
GAMG:  Solving for p, Initial residual = 0.0066701, Final residual = 5.74514e-05, No Iterations 4
time step continuity errors : sum local = 6.67292e-07, global = 2.21221e-07, cumulative = 6.53902e-07
GAMG:  Solving for p, Initial residual = 0.0482856, Final residual = 0.000325155, No Iterations 4
GAMG:  Solving for p, Initial residual = 0.00658833, Final residual = 5.72274e-05, No Iterations 18
GAMG:  Solving for p, Initial residual = 0.00334265, Final residual = 2.87318e-05, No Iterations 4
time step continuity errors : sum local = 3.35834e-07, global = 1.06579e-07, cumulative = 7.60481e-07
PIMPLE: iteration 2
DILUPBiCG:  Solving for Ux, Initial residual = 0.0148368, Final residual = 8.5688e-05, No Iterations 1
DILUPBiCG:  Solving for Uy, Initial residual = 0.00304104, Final residual = 6.0392e-06, No Iterations 1
DILUPBiCG:  Solving for Uz, Initial residual = 0.00249568, Final residual = 8.29465e-06, No Iterations 1
GAMG:  Solving for p, Initial residual = 0.046565, Final residual = 0.000296605, No Iterations 6
GAMG:  Solving for p, Initial residual = 0.00932706, Final residual = 7.88267e-05, No Iterations 16
GAMG:  Solving for p, Initial residual = 0.00388079, Final residual = 3.65014e-05, No Iterations 4
time step continuity errors : sum local = 3.70081e-07, global = -1.44596e-07, cumulative = 6.15884e-07
GAMG:  Solving for p, Initial residual = 0.0246311, Final residual = 0.000233847, No Iterations 4
GAMG:  Solving for p, Initial residual = 0.00503991, Final residual = 4.54981e-05, No Iterations 14
GAMG:  Solving for p, Initial residual = 0.00195316, Final residual = 1.8711e-05, No Iterations 4
time step continuity errors : sum local = 1.90392e-07, global = -7.07663e-08, cumulative = 5.45118e-07
PIMPLE: iteration 3
DILUPBiCG:  Solving for Ux, Initial residual = 0.003168, Final residual = 2.63188e-06, No Iterations 2
DILUPBiCG:  Solving for Uy, Initial residual = 0.000684454, Final residual = 4.77714e-06, No Iterations 1
DILUPBiCG:  Solving for Uz, Initial residual = 0.00455031, Final residual = 1.76095e-06, No Iterations 2
GAMG:  Solving for p, Initial residual = 0.0443705, Final residual = 0.000341675, No Iterations 5
GAMG:  Solving for p, Initial residual = 0.0101813, Final residual = 9.64316e-05, No Iterations 14
GAMG:  Solving for p, Initial residual = 0.0051779, Final residual = 5.06758e-05, No Iterations 10
time step continuity errors : sum local = 5.76615e-07, global = -1.52525e-07, cumulative = 3.92593e-07
GAMG:  Solving for p, Initial residual = 0.00248677, Final residual = 2.44938e-05, No Iterations 7
GAMG:  Solving for p, Initial residual = 0.00129694, Final residual = 1.02311e-05, No Iterations 6
GAMG:  Solving for p, Initial residual = 0.000516073, Final residual = 9.7515e-07, No Iterations 28
time step continuity errors : sum local = 1.09689e-08, global = 3.3259e-09, cumulative = 3.95919e-07
DILUPBiCG:  Solving for omega, Initial residual = 0.0011656, Final residual = 7.31562e-07, No Iterations 1
DILUPBiCG:  Solving for k, Initial residual = 0.00353026, Final residual = 6.35877e-07, No Iterations 2
bounding k, min: 0 max: 0.000627684 average: 0.00015207
ExecutionTime = 55.35 s  ClockTime = 55 s

Courant Number mean: 0.119501 max: 0.268172
Time = 0.49

GAMG:  Solving for cellDisplacementx, Initial residual = 0, Final residual = 0, No Iterations 0
GAMG:  Solving for cellDisplacementy, Initial residual = 0, Final residual = 0, No Iterations 0
GAMG:  Solving for cellDisplacementz, Initial residual = 0, Final residual = 0, No Iterations 0
PIMPLE: iteration 1
DILUPBiCG:  Solving for Ux, Initial residual = 0.0546966, Final residual = 0.000204905, No Iterations 1
DILUPBiCG:  Solving for Uy, Initial residual = 0.0109406, Final residual = 2.18667e-05, No Iterations 1
DILUPBiCG:  Solving for Uz, Initial residual = 0.0113031, Final residual = 1.07887e-05, No Iterations 1
GAMG:  Solving for p, Initial residual = 0.105561, Final residual = 0.000770084, No Iterations 4
GAMG:  Solving for p, Initial residual = 0.0132596, Final residual = 0.000126647, No Iterations 18
GAMG:  Solving for p, Initial residual = 0.00662201, Final residual = 6.30337e-05, No Iterations 4
time step continuity errors : sum local = 6.88381e-07, global = 2.47779e-07, cumulative = 6.43698e-07
GAMG:  Solving for p, Initial residual = 0.0477362, Final residual = 0.000322819, No Iterations 4
GAMG:  Solving for p, Initial residual = 0.00659571, Final residual = 6.36509e-05, No Iterations 16
GAMG:  Solving for p, Initial residual = 0.00330954, Final residual = 3.0685e-05, No Iterations 4
time step continuity errors : sum local = 3.36858e-07, global = 1.13013e-07, cumulative = 7.56711e-07
PIMPLE: iteration 2
DILUPBiCG:  Solving for Ux, Initial residual = 0.0140416, Final residual = 8.12482e-05, No Iterations 1
DILUPBiCG:  Solving for Uy, Initial residual = 0.00291247, Final residual = 5.7544e-06, No Iterations 1
DILUPBiCG:  Solving for Uz, Initial residual = 0.00256968, Final residual = 7.41929e-06, No Iterations 1
GAMG:  Solving for p, Initial residual = 0.0458705, Final residual = 0.000317057, No Iterations 6
GAMG:  Solving for p, Initial residual = 0.00927623, Final residual = 9.06831e-05, No Iterations 14
GAMG:  Solving for p, Initial residual = 0.00359307, Final residual = 2.96896e-05, No Iterations 12
time step continuity errors : sum local = 2.83945e-07, global = -8.4003e-08, cumulative = 6.72708e-07
GAMG:  Solving for p, Initial residual = 0.0240494, Final residual = 0.000231278, No Iterations 4
GAMG:  Solving for p, Initial residual = 0.00470926, Final residual = 4.40426e-05, No Iterations 14
GAMG:  Solving for p, Initial residual = 0.00191029, Final residual = 1.69635e-05, No Iterations 10
time step continuity errors : sum local = 1.62725e-07, global = -4.15684e-08, cumulative = 6.31139e-07
PIMPLE: iteration 3
DILUPBiCG:  Solving for Ux, Initial residual = 0.00292411, Final residual = 2.65408e-06, No Iterations 2
DILUPBiCG:  Solving for Uy, Initial residual = 0.000654876, Final residual = 4.83092e-06, No Iterations 1
DILUPBiCG:  Solving for Uz, Initial residual = 0.00456886, Final residual = 2.38893e-06, No Iterations 2
GAMG:  Solving for p, Initial residual = 0.0455901, Final residual = 0.000330218, No Iterations 5
GAMG:  Solving for p, Initial residual = 0.0102681, Final residual = 9.86813e-05, No Iterations 14
GAMG:  Solving for p, Initial residual = 0.00539667, Final residual = 5.10034e-05, No Iterations 10
time step continuity errors : sum local = 5.45816e-07, global = -1.44159e-07, cumulative = 4.8698e-07
GAMG:  Solving for p, Initial residual = 0.00255664, Final residual = 2.45298e-05, No Iterations 7
GAMG:  Solving for p, Initial residual = 0.00136295, Final residual = 1.02142e-05, No Iterations 6
GAMG:  Solving for p, Initial residual = 0.000560804, Final residual = 9.86542e-07, No Iterations 28
time step continuity errors : sum local = 1.04238e-08, global = 3.16697e-09, cumulative = 4.90147e-07
DILUPBiCG:  Solving for omega, Initial residual = 0.00119443, Final residual = 7.23692e-07, No Iterations 1
DILUPBiCG:  Solving for k, Initial residual = 0.0034766, Final residual = 6.18302e-07, No Iterations 2
bounding k, min: 0 max: 0.000613048 average: 0.000151205
ExecutionTime = 59.49 s  ClockTime = 59 s

End

