/*---------------------------------------------------------------------------*\
| =========                 |                                                 |
| \\      /  F ield         | OpenFOAM: The Open Source CFD Toolbox           |
|  \\    /   O peration     | Version:  2.3.1                                 |
|   \\  /    A nd           | Web:      www.OpenFOAM.org                      |
|    \\/     M anipulation  |                                                 |
\*---------------------------------------------------------------------------*/
Build  : 2.3.1-262087cdf8db
Exec   : pimpleDyMFoam
Date   : Jun 04 2023
Time   : 16:56:39
Host   : "jcosson-VirtualBox"
PID    : 4415
Case   : /home/jcosson/workspace/henersj_shootingdata/calcs/moderate_deformed/primal/10_intervals_04-06-23/sweep5/interval6
nProcs : 1
sigFpe : Enabling floating point exception trapping (FOAM_SIGFPE).
fileModificationChecking : Monitoring run-time modified files using timeStampMaster
allowSystemOperations : Allowing user-supplied system call operations

// * * * * * * * * * * * * * * * * * * * * * * * * * * * * * * * * * * * * * //
Create time

Create mesh for time = 0.45

Selecting dynamicFvMesh dynamicMotionSolverFvMesh
Selecting motion solver: displacementLaplacian
Selecting motion diffusion: quadratic
Selecting motion diffusion: quadratic
Selecting motion diffusion: inverseDistance

PIMPLE: no residual control data found. Calculations will employ 3 corrector loops

Reading field p

Reading field U

Reading/calculating face flux field phi

Selecting incompressible transport model Newtonian
Selecting turbulence model type RASModel
Selecting RAS turbulence model kOmegaSST
kOmegaSSTCoeffs
{
    alphaK1         0.85034;
    alphaK2         1;
    alphaOmega1     0.5;
    alphaOmega2     0.85616;
    gamma1          0.5532;
    gamma2          0.4403;
    beta1           0.075;
    beta2           0.0828;
    betaStar        0.09;
    a1              0.31;
    c1              10;
    Cmu             0.09;
    b1              1;
    F3              false;
}

Reading/calculating face velocity Uf

No finite volume options present

Courant Number mean: 0.280013 max: 0.620664

Starting time loop

Courant Number mean: 0.280013 max: 0.620664
Time = 0.451

GAMG:  Solving for cellDisplacementx, Initial residual = 0, Final residual = 0, No Iterations 0
GAMG:  Solving for cellDisplacementy, Initial residual = 0, Final residual = 0, No Iterations 0
GAMG:  Solving for cellDisplacementz, Initial residual = 0, Final residual = 0, No Iterations 0
PIMPLE: iteration 1
DILUPBiCG:  Solving for Ux, Initial residual = 0.00173748, Final residual = 3.02581e-05, No Iterations 1
DILUPBiCG:  Solving for Uy, Initial residual = 0.000398799, Final residual = 7.71998e-06, No Iterations 1
DILUPBiCG:  Solving for Uz, Initial residual = 0.0120524, Final residual = 2.87306e-05, No Iterations 1
GAMG:  Solving for p, Initial residual = 0.206156, Final residual = 0.00138596, No Iterations 4
GAMG:  Solving for p, Initial residual = 0.0434847, Final residual = 0.000389751, No Iterations 20
GAMG:  Solving for p, Initial residual = 0.0311789, Final residual = 0.000302884, No Iterations 4
time step continuity errors : sum local = 6.24246e-07, global = 1.40114e-07, cumulative = 1.40114e-07
GAMG:  Solving for p, Initial residual = 0.121949, Final residual = 0.000741818, No Iterations 4
GAMG:  Solving for p, Initial residual = 0.0215629, Final residual = 0.000202426, No Iterations 18
GAMG:  Solving for p, Initial residual = 0.0147441, Final residual = 0.000141311, No Iterations 4
time step continuity errors : sum local = 2.88794e-07, global = 7.11136e-08, cumulative = 2.11227e-07
PIMPLE: iteration 2
DILUPBiCG:  Solving for Ux, Initial residual = 0.000180161, Final residual = 2.05664e-06, No Iterations 1
DILUPBiCG:  Solving for Uy, Initial residual = 6.87302e-05, Final residual = 1.91127e-07, No Iterations 1
DILUPBiCG:  Solving for Uz, Initial residual = 0.00365705, Final residual = 1.09066e-05, No Iterations 1
GAMG:  Solving for p, Initial residual = 0.124053, Final residual = 0.000712382, No Iterations 4
GAMG:  Solving for p, Initial residual = 0.0221124, Final residual = 0.000197761, No Iterations 18
GAMG:  Solving for p, Initial residual = 0.0144763, Final residual = 0.000139076, No Iterations 4
time step continuity errors : sum local = 2.77896e-07, global = 6.70976e-08, cumulative = 2.78325e-07
GAMG:  Solving for p, Initial residual = 0.060648, Final residual = 0.000329949, No Iterations 4
GAMG:  Solving for p, Initial residual = 0.0115326, Final residual = 0.000104252, No Iterations 14
GAMG:  Solving for p, Initial residual = 0.00655963, Final residual = 5.78279e-05, No Iterations 4
time step continuity errors : sum local = 1.15081e-07, global = 3.9231e-08, cumulative = 3.17556e-07
PIMPLE: iteration 3
DILUPBiCG:  Solving for Ux, Initial residual = 0.000284607, Final residual = 2.23647e-06, No Iterations 1
DILUPBiCG:  Solving for Uy, Initial residual = 6.10923e-05, Final residual = 6.58569e-07, No Iterations 1
DILUPBiCG:  Solving for Uz, Initial residual = 0.00149288, Final residual = 8.11442e-06, No Iterations 1
GAMG:  Solving for p, Initial residual = 0.124656, Final residual = 0.000423654, No Iterations 4
GAMG:  Solving for p, Initial residual = 0.026632, Final residual = 0.000232975, No Iterations 4
GAMG:  Solving for p, Initial residual = 0.0109459, Final residual = 9.12126e-05, No Iterations 10
time step continuity errors : sum local = 1.68748e-07, global = 4.49757e-08, cumulative = 3.62531e-07
GAMG:  Solving for p, Initial residual = 0.00953866, Final residual = 3.45945e-05, No Iterations 5
GAMG:  Solving for p, Initial residual = 0.00467612, Final residual = 2.5067e-05, No Iterations 4
GAMG:  Solving for p, Initial residual = 0.00155543, Final residual = 9.17218e-07, No Iterations 12
time step continuity errors : sum local = 1.71092e-09, global = 5.3754e-10, cumulative = 3.63069e-07
DILUPBiCG:  Solving for omega, Initial residual = 0.00104383, Final residual = 1.46586e-06, No Iterations 1
DILUPBiCG:  Solving for k, Initial residual = 0.00521337, Final residual = 9.36616e-07, No Iterations 2
ExecutionTime = 6.9 s  ClockTime = 6 s

Courant Number mean: 0.279841 max: 0.620612
Time = 0.452

GAMG:  Solving for cellDisplacementx, Initial residual = 0, Final residual = 0, No Iterations 0
GAMG:  Solving for cellDisplacementy, Initial residual = 0, Final residual = 0, No Iterations 0
GAMG:  Solving for cellDisplacementz, Initial residual = 0, Final residual = 0, No Iterations 0
PIMPLE: iteration 1
DILUPBiCG:  Solving for Ux, Initial residual = 0.00127843, Final residual = 9.58981e-06, No Iterations 1
DILUPBiCG:  Solving for Uy, Initial residual = 0.00034178, Final residual = 4.82415e-06, No Iterations 1
DILUPBiCG:  Solving for Uz, Initial residual = 0.011088, Final residual = 2.75512e-05, No Iterations 1
GAMG:  Solving for p, Initial residual = 0.172913, Final residual = 0.00143233, No Iterations 10
GAMG:  Solving for p, Initial residual = 0.0384517, Final residual = 0.000360501, No Iterations 10
GAMG:  Solving for p, Initial residual = 0.0158553, Final residual = 0.000136729, No Iterations 12
time step continuity errors : sum local = 3.516e-07, global = 1.04888e-07, cumulative = 4.67957e-07
GAMG:  Solving for p, Initial residual = 0.0658158, Final residual = 0.000652545, No Iterations 6
GAMG:  Solving for p, Initial residual = 0.0185937, Final residual = 0.000173884, No Iterations 12
GAMG:  Solving for p, Initial residual = 0.00650685, Final residual = 5.46023e-05, No Iterations 14
time step continuity errors : sum local = 1.39932e-07, global = 4.3917e-08, cumulative = 5.11874e-07
PIMPLE: iteration 2
DILUPBiCG:  Solving for Ux, Initial residual = 0.000863937, Final residual = 3.59717e-06, No Iterations 1
DILUPBiCG:  Solving for Uy, Initial residual = 0.000177486, Final residual = 1.48019e-06, No Iterations 1
DILUPBiCG:  Solving for Uz, Initial residual = 0.00389896, Final residual = 1.19741e-05, No Iterations 1
GAMG:  Solving for p, Initial residual = 0.0655583, Final residual = 0.000483331, No Iterations 4
GAMG:  Solving for p, Initial residual = 0.0170109, Final residual = 0.000154816, No Iterations 10
GAMG:  Solving for p, Initial residual = 0.0064234, Final residual = 5.92551e-05, No Iterations 10
time step continuity errors : sum local = 1.41301e-07, global = 3.62338e-08, cumulative = 5.48108e-07
GAMG:  Solving for p, Initial residual = 0.0308093, Final residual = 0.000199913, No Iterations 4
GAMG:  Solving for p, Initial residual = 0.00845423, Final residual = 8.33783e-05, No Iterations 8
GAMG:  Solving for p, Initial residual = 0.00302756, Final residual = 2.73649e-05, No Iterations 12
time step continuity errors : sum local = 6.53176e-08, global = 1.91946e-08, cumulative = 5.67303e-07
PIMPLE: iteration 3
DILUPBiCG:  Solving for Ux, Initial residual = 0.000468293, Final residual = 8.44869e-06, No Iterations 1
DILUPBiCG:  Solving for Uy, Initial residual = 8.85932e-05, Final residual = 1.1674e-06, No Iterations 1
DILUPBiCG:  Solving for Uz, Initial residual = 0.00138364, Final residual = 6.88354e-06, No Iterations 1
GAMG:  Solving for p, Initial residual = 0.0914522, Final residual = 0.000715896, No Iterations 3
GAMG:  Solving for p, Initial residual = 0.0209032, Final residual = 0.000150724, No Iterations 4
GAMG:  Solving for p, Initial residual = 0.00935565, Final residual = 6.57308e-05, No Iterations 4
time step continuity errors : sum local = 1.55562e-07, global = -3.69359e-08, cumulative = 5.30367e-07
GAMG:  Solving for p, Initial residual = 0.00665253, Final residual = 6.15101e-05, No Iterations 4
GAMG:  Solving for p, Initial residual = 0.00360385, Final residual = 2.08902e-05, No Iterations 4
GAMG:  Solving for p, Initial residual = 0.00122521, Final residual = 7.56758e-07, No Iterations 11
time step continuity errors : sum local = 1.78161e-09, global = 3.35463e-10, cumulative = 5.30702e-07
DILUPBiCG:  Solving for omega, Initial residual = 0.00100298, Final residual = 1.42579e-06, No Iterations 1
DILUPBiCG:  Solving for k, Initial residual = 0.00501125, Final residual = 1.01749e-06, No Iterations 2
ExecutionTime = 11.72 s  ClockTime = 11 s

Courant Number mean: 0.279308 max: 0.619828
Time = 0.453

GAMG:  Solving for cellDisplacementx, Initial residual = 0, Final residual = 0, No Iterations 0
GAMG:  Solving for cellDisplacementy, Initial residual = 0, Final residual = 0, No Iterations 0
GAMG:  Solving for cellDisplacementz, Initial residual = 0, Final residual = 0, No Iterations 0
PIMPLE: iteration 1
DILUPBiCG:  Solving for Ux, Initial residual = 0.00377777, Final residual = 1.5089e-05, No Iterations 1
DILUPBiCG:  Solving for Uy, Initial residual = 0.000708892, Final residual = 4.94352e-06, No Iterations 1
DILUPBiCG:  Solving for Uz, Initial residual = 0.0125943, Final residual = 3.15717e-05, No Iterations 1
GAMG:  Solving for p, Initial residual = 0.171057, Final residual = 0.00168897, No Iterations 8
GAMG:  Solving for p, Initial residual = 0.0328017, Final residual = 0.000277135, No Iterations 14
GAMG:  Solving for p, Initial residual = 0.0120563, Final residual = 0.000107106, No Iterations 12
time step continuity errors : sum local = 3.43254e-07, global = 1.02329e-07, cumulative = 6.33032e-07
GAMG:  Solving for p, Initial residual = 0.0650267, Final residual = 0.00057707, No Iterations 6
GAMG:  Solving for p, Initial residual = 0.0159082, Final residual = 0.000153689, No Iterations 12
GAMG:  Solving for p, Initial residual = 0.00578653, Final residual = 4.84869e-05, No Iterations 14
time step continuity errors : sum local = 1.54372e-07, global = 4.85393e-08, cumulative = 6.81571e-07
PIMPLE: iteration 2
DILUPBiCG:  Solving for Ux, Initial residual = 0.00164015, Final residual = 1.36145e-05, No Iterations 1
DILUPBiCG:  Solving for Uy, Initial residual = 0.000300362, Final residual = 2.22329e-06, No Iterations 1
DILUPBiCG:  Solving for Uz, Initial residual = 0.00427266, Final residual = 1.32266e-05, No Iterations 1
GAMG:  Solving for p, Initial residual = 0.0650609, Final residual = 0.000638411, No Iterations 3
GAMG:  Solving for p, Initial residual = 0.0151434, Final residual = 0.000129071, No Iterations 9
GAMG:  Solving for p, Initial residual = 0.00611226, Final residual = 5.64516e-05, No Iterations 4
time step continuity errors : sum local = 1.6178e-07, global = 6.04486e-08, cumulative = 7.42019e-07
GAMG:  Solving for p, Initial residual = 0.0313761, Final residual = 0.000284216, No Iterations 3
GAMG:  Solving for p, Initial residual = 0.00723549, Final residual = 6.30916e-05, No Iterations 9
GAMG:  Solving for p, Initial residual = 0.00295502, Final residual = 2.76115e-05, No Iterations 4
time step continuity errors : sum local = 7.95626e-08, global = 2.96907e-08, cumulative = 7.7171e-07
PIMPLE: iteration 3
DILUPBiCG:  Solving for Ux, Initial residual = 0.000663523, Final residual = 1.23859e-07, No Iterations 2
DILUPBiCG:  Solving for Uy, Initial residual = 0.000118698, Final residual = 1.93717e-06, No Iterations 1
DILUPBiCG:  Solving for Uz, Initial residual = 0.00139258, Final residual = 8.08005e-06, No Iterations 1
GAMG:  Solving for p, Initial residual = 0.0729038, Final residual = 0.000343621, No Iterations 4
GAMG:  Solving for p, Initial residual = 0.0163331, Final residual = 0.000141304, No Iterations 4
GAMG:  Solving for p, Initial residual = 0.00770421, Final residual = 7.48501e-05, No Iterations 4
time step continuity errors : sum local = 2.20942e-07, global = -3.65268e-08, cumulative = 7.35183e-07
GAMG:  Solving for p, Initial residual = 0.0052934, Final residual = 3.36317e-05, No Iterations 5
GAMG:  Solving for p, Initial residual = 0.00291934, Final residual = 2.63367e-05, No Iterations 4
GAMG:  Solving for p, Initial residual = 0.00101593, Final residual = 8.84367e-07, No Iterations 32
time step continuity errors : sum local = 2.59349e-09, global = 7.72425e-10, cumulative = 7.35956e-07
DILUPBiCG:  Solving for omega, Initial residual = 0.00095939, Final residual = 1.38168e-06, No Iterations 1
DILUPBiCG:  Solving for k, Initial residual = 0.00483849, Final residual = 1.12046e-06, No Iterations 2
ExecutionTime = 16.51 s  ClockTime = 16 s

Courant Number mean: 0.278418 max: 0.618151
Time = 0.454

GAMG:  Solving for cellDisplacementx, Initial residual = 0, Final residual = 0, No Iterations 0
GAMG:  Solving for cellDisplacementy, Initial residual = 0, Final residual = 0, No Iterations 0
GAMG:  Solving for cellDisplacementz, Initial residual = 0, Final residual = 0, No Iterations 0
PIMPLE: iteration 1
DILUPBiCG:  Solving for Ux, Initial residual = 0.00636854, Final residual = 2.37049e-05, No Iterations 1
DILUPBiCG:  Solving for Uy, Initial residual = 0.00109896, Final residual = 4.1215e-06, No Iterations 1
DILUPBiCG:  Solving for Uz, Initial residual = 0.0138359, Final residual = 3.4664e-05, No Iterations 1
GAMG:  Solving for p, Initial residual = 0.167418, Final residual = 0.00158427, No Iterations 8
GAMG:  Solving for p, Initial residual = 0.0294852, Final residual = 0.000259138, No Iterations 14
GAMG:  Solving for p, Initial residual = 0.0109008, Final residual = 0.000100058, No Iterations 12
time step continuity errors : sum local = 3.89453e-07, global = 1.16478e-07, cumulative = 8.52433e-07
GAMG:  Solving for p, Initial residual = 0.0641128, Final residual = 0.000542078, No Iterations 6
GAMG:  Solving for p, Initial residual = 0.0142581, Final residual = 0.000121231, No Iterations 14
GAMG:  Solving for p, Initial residual = 0.00556034, Final residual = 5.35773e-05, No Iterations 10
time step continuity errors : sum local = 2.07475e-07, global = 5.36454e-08, cumulative = 9.06079e-07
PIMPLE: iteration 2
DILUPBiCG:  Solving for Ux, Initial residual = 0.00242555, Final residual = 1.97354e-05, No Iterations 1
DILUPBiCG:  Solving for Uy, Initial residual = 0.000425599, Final residual = 2.67143e-06, No Iterations 1
DILUPBiCG:  Solving for Uz, Initial residual = 0.00437187, Final residual = 1.31577e-05, No Iterations 1
GAMG:  Solving for p, Initial residual = 0.0645128, Final residual = 0.000550344, No Iterations 3
GAMG:  Solving for p, Initial residual = 0.0138938, Final residual = 0.000113041, No Iterations 5
GAMG:  Solving for p, Initial residual = 0.00559209, Final residual = 5.29672e-05, No Iterations 4
time step continuity errors : sum local = 1.80707e-07, global = 4.92532e-08, cumulative = 9.55332e-07
GAMG:  Solving for p, Initial residual = 0.0315965, Final residual = 0.000285413, No Iterations 3
GAMG:  Solving for p, Initial residual = 0.00655693, Final residual = 4.731e-05, No Iterations 5
GAMG:  Solving for p, Initial residual = 0.0027434, Final residual = 2.03362e-05, No Iterations 4
time step continuity errors : sum local = 6.98647e-08, global = 2.09926e-08, cumulative = 9.76325e-07
PIMPLE: iteration 3
DILUPBiCG:  Solving for Ux, Initial residual = 0.000863528, Final residual = 1.64675e-07, No Iterations 2
DILUPBiCG:  Solving for Uy, Initial residual = 0.000149484, Final residual = 2.70393e-06, No Iterations 1
DILUPBiCG:  Solving for Uz, Initial residual = 0.00174169, Final residual = 7.73474e-07, No Iterations 2
GAMG:  Solving for p, Initial residual = 0.0612051, Final residual = 0.000408894, No Iterations 4
GAMG:  Solving for p, Initial residual = 0.0143646, Final residual = 0.0001207, No Iterations 8
GAMG:  Solving for p, Initial residual = 0.00667391, Final residual = 6.12396e-05, No Iterations 8
time step continuity errors : sum local = 2.20782e-07, global = -4.90883e-08, cumulative = 9.27236e-07
GAMG:  Solving for p, Initial residual = 0.00463149, Final residual = 4.20616e-05, No Iterations 7
GAMG:  Solving for p, Initial residual = 0.00253598, Final residual = 2.11785e-05, No Iterations 6
GAMG:  Solving for p, Initial residual = 0.000885105, Final residual = 9.94266e-07, No Iterations 36
time step continuity errors : sum local = 3.56055e-09, global = 1.05689e-09, cumulative = 9.28293e-07
DILUPBiCG:  Solving for omega, Initial residual = 0.000914022, Final residual = 1.33613e-06, No Iterations 1
DILUPBiCG:  Solving for k, Initial residual = 0.00470554, Final residual = 1.16273e-06, No Iterations 2
ExecutionTime = 21.55 s  ClockTime = 21 s

Courant Number mean: 0.277173 max: 0.61563
Time = 0.455

GAMG:  Solving for cellDisplacementx, Initial residual = 0, Final residual = 0, No Iterations 0
GAMG:  Solving for cellDisplacementy, Initial residual = 0, Final residual = 0, No Iterations 0
GAMG:  Solving for cellDisplacementz, Initial residual = 0, Final residual = 0, No Iterations 0
PIMPLE: iteration 1
DILUPBiCG:  Solving for Ux, Initial residual = 0.00899848, Final residual = 3.23889e-05, No Iterations 1
DILUPBiCG:  Solving for Uy, Initial residual = 0.00149728, Final residual = 4.31901e-06, No Iterations 1
DILUPBiCG:  Solving for Uz, Initial residual = 0.0141014, Final residual = 3.5394e-05, No Iterations 1
GAMG:  Solving for p, Initial residual = 0.160422, Final residual = 0.00148665, No Iterations 8
GAMG:  Solving for p, Initial residual = 0.0257647, Final residual = 0.000247095, No Iterations 14
GAMG:  Solving for p, Initial residual = 0.00976151, Final residual = 9.64498e-05, No Iterations 12
time step continuity errors : sum local = 4.43511e-07, global = 1.32843e-07, cumulative = 1.06114e-06
GAMG:  Solving for p, Initial residual = 0.0621474, Final residual = 0.000515143, No Iterations 6
GAMG:  Solving for p, Initial residual = 0.0125065, Final residual = 0.000116127, No Iterations 14
GAMG:  Solving for p, Initial residual = 0.00506153, Final residual = 4.29421e-05, No Iterations 12
time step continuity errors : sum local = 1.96416e-07, global = 5.82917e-08, cumulative = 1.11943e-06
PIMPLE: iteration 2
DILUPBiCG:  Solving for Ux, Initial residual = 0.00321566, Final residual = 2.26542e-05, No Iterations 1
DILUPBiCG:  Solving for Uy, Initial residual = 0.000552382, Final residual = 2.93969e-06, No Iterations 1
DILUPBiCG:  Solving for Uz, Initial residual = 0.00428826, Final residual = 1.23578e-05, No Iterations 1
GAMG:  Solving for p, Initial residual = 0.062951, Final residual = 0.000220617, No Iterations 4
GAMG:  Solving for p, Initial residual = 0.012289, Final residual = 0.000111172, No Iterations 4
GAMG:  Solving for p, Initial residual = 0.005208, Final residual = 3.58593e-05, No Iterations 7
time step continuity errors : sum local = 1.42921e-07, global = 2.2089e-08, cumulative = 1.14152e-06
GAMG:  Solving for p, Initial residual = 0.0310207, Final residual = 0.00029787, No Iterations 3
GAMG:  Solving for p, Initial residual = 0.00586717, Final residual = 5.04076e-05, No Iterations 4
GAMG:  Solving for p, Initial residual = 0.00255102, Final residual = 2.24826e-05, No Iterations 5
time step continuity errors : sum local = 9.00776e-08, global = 1.49594e-08, cumulative = 1.15648e-06
PIMPLE: iteration 3
DILUPBiCG:  Solving for Ux, Initial residual = 0.00105921, Final residual = 2.10943e-07, No Iterations 2
DILUPBiCG:  Solving for Uy, Initial residual = 0.000180438, Final residual = 3.47551e-06, No Iterations 1
DILUPBiCG:  Solving for Uz, Initial residual = 0.00219013, Final residual = 8.72037e-07, No Iterations 2
GAMG:  Solving for p, Initial residual = 0.0539955, Final residual = 0.000359897, No Iterations 4
GAMG:  Solving for p, Initial residual = 0.0130245, Final residual = 0.000110535, No Iterations 10
GAMG:  Solving for p, Initial residual = 0.00606551, Final residual = 5.69628e-05, No Iterations 4
time step continuity errors : sum local = 2.43372e-07, global = -8.92656e-08, cumulative = 1.06721e-06
GAMG:  Solving for p, Initial residual = 0.00415242, Final residual = 3.53806e-05, No Iterations 8
GAMG:  Solving for p, Initial residual = 0.00228087, Final residual = 1.88957e-05, No Iterations 5
GAMG:  Solving for p, Initial residual = 0.000817185, Final residual = 9.68187e-07, No Iterations 34
time step continuity errors : sum local = 4.11399e-09, global = 1.21973e-09, cumulative = 1.06843e-06
DILUPBiCG:  Solving for omega, Initial residual = 0.000867796, Final residual = 1.29201e-06, No Iterations 1
DILUPBiCG:  Solving for k, Initial residual = 0.00465797, Final residual = 1.10451e-06, No Iterations 2
ExecutionTime = 27.13 s  ClockTime = 27 s

Courant Number mean: 0.275579 max: 0.612324
Time = 0.456

GAMG:  Solving for cellDisplacementx, Initial residual = 0, Final residual = 0, No Iterations 0
GAMG:  Solving for cellDisplacementy, Initial residual = 0, Final residual = 0, No Iterations 0
GAMG:  Solving for cellDisplacementz, Initial residual = 0, Final residual = 0, No Iterations 0
PIMPLE: iteration 1
DILUPBiCG:  Solving for Ux, Initial residual = 0.0116283, Final residual = 4.23488e-05, No Iterations 1
DILUPBiCG:  Solving for Uy, Initial residual = 0.00189793, Final residual = 4.8912e-06, No Iterations 1
DILUPBiCG:  Solving for Uz, Initial residual = 0.0139085, Final residual = 3.43642e-05, No Iterations 1
GAMG:  Solving for p, Initial residual = 0.153173, Final residual = 0.00141334, No Iterations 8
GAMG:  Solving for p, Initial residual = 0.022791, Final residual = 0.000201885, No Iterations 16
GAMG:  Solving for p, Initial residual = 0.00874373, Final residual = 7.85143e-05, No Iterations 12
time step continuity errors : sum local = 4.1698e-07, global = 1.24738e-07, cumulative = 1.19317e-06
GAMG:  Solving for p, Initial residual = 0.0598949, Final residual = 0.000495336, No Iterations 6
GAMG:  Solving for p, Initial residual = 0.0110694, Final residual = 9.61129e-05, No Iterations 16
GAMG:  Solving for p, Initial residual = 0.00458618, Final residual = 4.08022e-05, No Iterations 10
time step continuity errors : sum local = 2.15287e-07, global = 5.58678e-08, cumulative = 1.24904e-06
PIMPLE: iteration 2
DILUPBiCG:  Solving for Ux, Initial residual = 0.00399996, Final residual = 2.32118e-05, No Iterations 1
DILUPBiCG:  Solving for Uy, Initial residual = 0.000678565, Final residual = 3.10509e-06, No Iterations 1
DILUPBiCG:  Solving for Uz, Initial residual = 0.00414115, Final residual = 1.15603e-05, No Iterations 1
GAMG:  Solving for p, Initial residual = 0.0610128, Final residual = 0.000323246, No Iterations 4
GAMG:  Solving for p, Initial residual = 0.011042, Final residual = 0.000108394, No Iterations 7
GAMG:  Solving for p, Initial residual = 0.00491866, Final residual = 3.97768e-05, No Iterations 6
time step continuity errors : sum local = 1.81641e-07, global = 5.80617e-08, cumulative = 1.3071e-06
GAMG:  Solving for p, Initial residual = 0.0301808, Final residual = 0.000131045, No Iterations 4
GAMG:  Solving for p, Initial residual = 0.00528242, Final residual = 4.81608e-05, No Iterations 7
GAMG:  Solving for p, Initial residual = 0.00239852, Final residual = 2.35765e-05, No Iterations 5
time step continuity errors : sum local = 1.08014e-07, global = -3.52632e-08, cumulative = 1.27183e-06
PIMPLE: iteration 3
DILUPBiCG:  Solving for Ux, Initial residual = 0.00125291, Final residual = 2.5464e-07, No Iterations 2
DILUPBiCG:  Solving for Uy, Initial residual = 0.000210699, Final residual = 4.17187e-06, No Iterations 1
DILUPBiCG:  Solving for Uz, Initial residual = 0.00262906, Final residual = 5.96234e-07, No Iterations 2
GAMG:  Solving for p, Initial residual = 0.0497027, Final residual = 0.00039424, No Iterations 4
GAMG:  Solving for p, Initial residual = 0.0120955, Final residual = 9.98236e-05, No Iterations 12
GAMG:  Solving for p, Initial residual = 0.0056128, Final residual = 4.80713e-05, No Iterations 4
time step continuity errors : sum local = 2.37286e-07, global = -8.80584e-08, cumulative = 1.18378e-06
GAMG:  Solving for p, Initial residual = 0.00380893, Final residual = 2.89201e-05, No Iterations 8
GAMG:  Solving for p, Initial residual = 0.00211444, Final residual = 1.69205e-05, No Iterations 5
GAMG:  Solving for p, Initial residual = 0.000767681, Final residual = 8.79992e-07, No Iterations 36
time step continuity errors : sum local = 4.32628e-09, global = 1.2773e-09, cumulative = 1.18505e-06
DILUPBiCG:  Solving for omega, Initial residual = 0.000821419, Final residual = 1.25115e-06, No Iterations 1
DILUPBiCG:  Solving for k, Initial residual = 0.00466953, Final residual = 1.01651e-06, No Iterations 2
ExecutionTime = 32.94 s  ClockTime = 32 s

Courant Number mean: 0.27364 max: 0.608218
Time = 0.457

GAMG:  Solving for cellDisplacementx, Initial residual = 0, Final residual = 0, No Iterations 0
GAMG:  Solving for cellDisplacementy, Initial residual = 0, Final residual = 0, No Iterations 0
GAMG:  Solving for cellDisplacementz, Initial residual = 0, Final residual = 0, No Iterations 0
PIMPLE: iteration 1
DILUPBiCG:  Solving for Ux, Initial residual = 0.0142699, Final residual = 5.31549e-05, No Iterations 1
DILUPBiCG:  Solving for Uy, Initial residual = 0.00230384, Final residual = 5.63494e-06, No Iterations 1
DILUPBiCG:  Solving for Uz, Initial residual = 0.0136844, Final residual = 3.34658e-05, No Iterations 1
GAMG:  Solving for p, Initial residual = 0.147685, Final residual = 0.00135415, No Iterations 8
GAMG:  Solving for p, Initial residual = 0.0207396, Final residual = 0.000196403, No Iterations 16
GAMG:  Solving for p, Initial residual = 0.00800634, Final residual = 7.81933e-05, No Iterations 12
time step continuity errors : sum local = 4.70253e-07, global = 1.40997e-07, cumulative = 1.32605e-06
GAMG:  Solving for p, Initial residual = 0.0582525, Final residual = 0.000479691, No Iterations 6
GAMG:  Solving for p, Initial residual = 0.0100973, Final residual = 9.34547e-05, No Iterations 16
GAMG:  Solving for p, Initial residual = 0.00420667, Final residual = 3.44962e-05, No Iterations 12
time step continuity errors : sum local = 2.06136e-07, global = 6.08398e-08, cumulative = 1.38689e-06
PIMPLE: iteration 2
DILUPBiCG:  Solving for Ux, Initial residual = 0.0047821, Final residual = 2.23966e-05, No Iterations 1
DILUPBiCG:  Solving for Uy, Initial residual = 0.000805589, Final residual = 3.20456e-06, No Iterations 1
DILUPBiCG:  Solving for Uz, Initial residual = 0.00402879, Final residual = 1.10764e-05, No Iterations 1
GAMG:  Solving for p, Initial residual = 0.0594919, Final residual = 0.000282565, No Iterations 4
GAMG:  Solving for p, Initial residual = 0.010283, Final residual = 9.93524e-05, No Iterations 12
GAMG:  Solving for p, Initial residual = 0.00486789, Final residual = 4.37653e-05, No Iterations 8
time step continuity errors : sum local = 2.24748e-07, global = -8.31295e-08, cumulative = 1.30376e-06
GAMG:  Solving for p, Initial residual = 0.0295579, Final residual = 0.000284977, No Iterations 3
GAMG:  Solving for p, Initial residual = 0.00494171, Final residual = 3.90941e-05, No Iterations 6
GAMG:  Solving for p, Initial residual = 0.00234883, Final residual = 2.0451e-05, No Iterations 4
time step continuity errors : sum local = 1.05362e-07, global = 3.494e-08, cumulative = 1.3387e-06
PIMPLE: iteration 3
DILUPBiCG:  Solving for Ux, Initial residual = 0.00143889, Final residual = 2.85419e-07, No Iterations 2
DILUPBiCG:  Solving for Uy, Initial residual = 0.000239908, Final residual = 4.80713e-06, No Iterations 1
DILUPBiCG:  Solving for Uz, Initial residual = 0.00308903, Final residual = 6.558e-07, No Iterations 2
GAMG:  Solving for p, Initial residual = 0.0468321, Final residual = 0.000422447, No Iterations 4
GAMG:  Solving for p, Initial residual = 0.0113108, Final residual = 0.000110226, No Iterations 12
GAMG:  Solving for p, Initial residual = 0.00525401, Final residual = 4.42755e-05, No Iterations 10
time step continuity errors : sum local = 2.48185e-07, global = -6.41452e-08, cumulative = 1.27456e-06
GAMG:  Solving for p, Initial residual = 0.00356779, Final residual = 2.38347e-05, No Iterations 8
GAMG:  Solving for p, Initial residual = 0.00203934, Final residual = 1.9805e-05, No Iterations 4
GAMG:  Solving for p, Initial residual = 0.000735397, Final residual = 8.8409e-07, No Iterations 35
time step continuity errors : sum local = 4.93966e-09, global = 1.46678e-09, cumulative = 1.27602e-06
DILUPBiCG:  Solving for omega, Initial residual = 0.000776529, Final residual = 1.21556e-06, No Iterations 1
DILUPBiCG:  Solving for k, Initial residual = 0.00472126, Final residual = 9.65974e-07, No Iterations 2
ExecutionTime = 38.71 s  ClockTime = 38 s

Courant Number mean: 0.271364 max: 0.603334
Time = 0.458

GAMG:  Solving for cellDisplacementx, Initial residual = 0, Final residual = 0, No Iterations 0
GAMG:  Solving for cellDisplacementy, Initial residual = 0, Final residual = 0, No Iterations 0
GAMG:  Solving for cellDisplacementz, Initial residual = 0, Final residual = 0, No Iterations 0
PIMPLE: iteration 1
DILUPBiCG:  Solving for Ux, Initial residual = 0.0169165, Final residual = 6.44471e-05, No Iterations 1
DILUPBiCG:  Solving for Uy, Initial residual = 0.0027132, Final residual = 6.486e-06, No Iterations 1
DILUPBiCG:  Solving for Uz, Initial residual = 0.013573, Final residual = 3.30549e-05, No Iterations 1
GAMG:  Solving for p, Initial residual = 0.143393, Final residual = 0.00130203, No Iterations 8
GAMG:  Solving for p, Initial residual = 0.0192, Final residual = 0.00019127, No Iterations 16
GAMG:  Solving for p, Initial residual = 0.00747368, Final residual = 6.35169e-05, No Iterations 14
time step continuity errors : sum local = 4.26681e-07, global = 1.33359e-07, cumulative = 1.40938e-06
GAMG:  Solving for p, Initial residual = 0.0569851, Final residual = 0.000464699, No Iterations 6
GAMG:  Solving for p, Initial residual = 0.00937195, Final residual = 9.09586e-05, No Iterations 16
GAMG:  Solving for p, Initial residual = 0.00394873, Final residual = 3.39483e-05, No Iterations 12
time step continuity errors : sum local = 2.26662e-07, global = 6.68866e-08, cumulative = 1.47627e-06
PIMPLE: iteration 2
DILUPBiCG:  Solving for Ux, Initial residual = 0.00555561, Final residual = 2.38906e-05, No Iterations 1
DILUPBiCG:  Solving for Uy, Initial residual = 0.000931774, Final residual = 3.30654e-06, No Iterations 1
DILUPBiCG:  Solving for Uz, Initial residual = 0.00394095, Final residual = 1.07649e-05, No Iterations 1
GAMG:  Solving for p, Initial residual = 0.0582702, Final residual = 0.000300317, No Iterations 4
GAMG:  Solving for p, Initial residual = 0.0098497, Final residual = 8.51346e-05, No Iterations 14
GAMG:  Solving for p, Initial residual = 0.00472043, Final residual = 4.45814e-05, No Iterations 7
time step continuity errors : sum local = 2.54374e-07, global = 8.9931e-08, cumulative = 1.5662e-06
GAMG:  Solving for p, Initial residual = 0.0290885, Final residual = 0.000126886, No Iterations 4
GAMG:  Solving for p, Initial residual = 0.00472868, Final residual = 4.6564e-05, No Iterations 11
GAMG:  Solving for p, Initial residual = 0.00221429, Final residual = 1.70655e-05, No Iterations 5
time step continuity errors : sum local = 9.77721e-08, global = -2.68339e-08, cumulative = 1.53937e-06
PIMPLE: iteration 3
DILUPBiCG:  Solving for Ux, Initial residual = 0.00162313, Final residual = 3.06778e-07, No Iterations 2
DILUPBiCG:  Solving for Uy, Initial residual = 0.000269385, Final residual = 5.35418e-06, No Iterations 1
DILUPBiCG:  Solving for Uz, Initial residual = 0.00355368, Final residual = 7.5404e-07, No Iterations 2
GAMG:  Solving for p, Initial residual = 0.0447748, Final residual = 0.000342312, No Iterations 5
GAMG:  Solving for p, Initial residual = 0.0108116, Final residual = 0.000107514, No Iterations 11
GAMG:  Solving for p, Initial residual = 0.00495894, Final residual = 4.67708e-05, No Iterations 10
time step continuity errors : sum local = 2.93438e-07, global = -7.62373e-08, cumulative = 1.46313e-06
GAMG:  Solving for p, Initial residual = 0.00334212, Final residual = 2.74893e-05, No Iterations 6
GAMG:  Solving for p, Initial residual = 0.00192879, Final residual = 1.49617e-05, No Iterations 4
GAMG:  Solving for p, Initial residual = 0.000699336, Final residual = 9.85801e-07, No Iterations 29
time step continuity errors : sum local = 6.16953e-09, global = 1.83304e-09, cumulative = 1.46496e-06
DILUPBiCG:  Solving for omega, Initial residual = 0.000733907, Final residual = 1.18696e-06, No Iterations 1
DILUPBiCG:  Solving for k, Initial residual = 0.00478128, Final residual = 9.61842e-07, No Iterations 2
ExecutionTime = 44.47 s  ClockTime = 44 s

Courant Number mean: 0.268759 max: 0.597688
Time = 0.459

GAMG:  Solving for cellDisplacementx, Initial residual = 0, Final residual = 0, No Iterations 0
GAMG:  Solving for cellDisplacementy, Initial residual = 0, Final residual = 0, No Iterations 0
GAMG:  Solving for cellDisplacementz, Initial residual = 0, Final residual = 0, No Iterations 0
PIMPLE: iteration 1
DILUPBiCG:  Solving for Ux, Initial residual = 0.0195455, Final residual = 7.59693e-05, No Iterations 1
DILUPBiCG:  Solving for Uy, Initial residual = 0.00312155, Final residual = 7.39575e-06, No Iterations 1
DILUPBiCG:  Solving for Uz, Initial residual = 0.0133385, Final residual = 3.25089e-05, No Iterations 1
GAMG:  Solving for p, Initial residual = 0.140094, Final residual = 0.00125746, No Iterations 8
GAMG:  Solving for p, Initial residual = 0.0179984, Final residual = 0.000159418, No Iterations 18
GAMG:  Solving for p, Initial residual = 0.00709459, Final residual = 6.26185e-05, No Iterations 12
time step continuity errors : sum local = 4.65115e-07, global = 1.38929e-07, cumulative = 1.60389e-06
GAMG:  Solving for p, Initial residual = 0.0560231, Final residual = 0.000451844, No Iterations 6
GAMG:  Solving for p, Initial residual = 0.00884776, Final residual = 7.595e-05, No Iterations 18
GAMG:  Solving for p, Initial residual = 0.00377176, Final residual = 3.21626e-05, No Iterations 10
time step continuity errors : sum local = 2.37307e-07, global = 6.18902e-08, cumulative = 1.66578e-06
PIMPLE: iteration 2
DILUPBiCG:  Solving for Ux, Initial residual = 0.00632134, Final residual = 2.71312e-05, No Iterations 1
DILUPBiCG:  Solving for Uy, Initial residual = 0.00105803, Final residual = 3.42896e-06, No Iterations 1
DILUPBiCG:  Solving for Uz, Initial residual = 0.00388881, Final residual = 1.06436e-05, No Iterations 1
GAMG:  Solving for p, Initial residual = 0.0573027, Final residual = 0.000345254, No Iterations 4
GAMG:  Solving for p, Initial residual = 0.00950856, Final residual = 8.71144e-05, No Iterations 14
GAMG:  Solving for p, Initial residual = 0.0045429, Final residual = 4.04917e-05, No Iterations 8
time step continuity errors : sum local = 2.54182e-07, global = -9.02381e-08, cumulative = 1.57554e-06
GAMG:  Solving for p, Initial residual = 0.0287132, Final residual = 0.000145955, No Iterations 4
GAMG:  Solving for p, Initial residual = 0.00455973, Final residual = 4.01013e-05, No Iterations 12
GAMG:  Solving for p, Initial residual = 0.00211413, Final residual = 1.76056e-05, No Iterations 8
time step continuity errors : sum local = 1.11019e-07, global = -3.80002e-08, cumulative = 1.53754e-06
PIMPLE: iteration 3
DILUPBiCG:  Solving for Ux, Initial residual = 0.00180648, Final residual = 3.41695e-07, No Iterations 2
DILUPBiCG:  Solving for Uy, Initial residual = 0.000299571, Final residual = 5.80893e-06, No Iterations 1
DILUPBiCG:  Solving for Uz, Initial residual = 0.00396798, Final residual = 8.57162e-07, No Iterations 2
GAMG:  Solving for p, Initial residual = 0.0433443, Final residual = 0.000341546, No Iterations 5
GAMG:  Solving for p, Initial residual = 0.0103456, Final residual = 9.52774e-05, No Iterations 13
GAMG:  Solving for p, Initial residual = 0.00477652, Final residual = 3.92622e-05, No Iterations 10
time step continuity errors : sum local = 2.72148e-07, global = -7.05201e-08, cumulative = 1.46702e-06
GAMG:  Solving for p, Initial residual = 0.00316828, Final residual = 3.08231e-05, No Iterations 14
GAMG:  Solving for p, Initial residual = 0.00182245, Final residual = 1.55091e-05, No Iterations 4
GAMG:  Solving for p, Initial residual = 0.000667205, Final residual = 9.54891e-07, No Iterations 38
time step continuity errors : sum local = 6.60526e-09, global = 1.95761e-09, cumulative = 1.46898e-06
DILUPBiCG:  Solving for omega, Initial residual = 0.000693664, Final residual = 1.16805e-06, No Iterations 1
DILUPBiCG:  Solving for k, Initial residual = 0.00482964, Final residual = 9.85186e-07, No Iterations 2
ExecutionTime = 50.57 s  ClockTime = 50 s

Courant Number mean: 0.265836 max: 0.591299
Time = 0.46

GAMG:  Solving for cellDisplacementx, Initial residual = 0, Final residual = 0, No Iterations 0
GAMG:  Solving for cellDisplacementy, Initial residual = 0, Final residual = 0, No Iterations 0
GAMG:  Solving for cellDisplacementz, Initial residual = 0, Final residual = 0, No Iterations 0
PIMPLE: iteration 1
DILUPBiCG:  Solving for Ux, Initial residual = 0.0221652, Final residual = 8.76065e-05, No Iterations 1
DILUPBiCG:  Solving for Uy, Initial residual = 0.00353226, Final residual = 8.34757e-06, No Iterations 1
DILUPBiCG:  Solving for Uz, Initial residual = 0.0132554, Final residual = 3.23641e-05, No Iterations 1
GAMG:  Solving for p, Initial residual = 0.137544, Final residual = 0.00121694, No Iterations 8
GAMG:  Solving for p, Initial residual = 0.0170913, Final residual = 0.000155785, No Iterations 18
GAMG:  Solving for p, Initial residual = 0.00679991, Final residual = 6.17278e-05, No Iterations 12
time step continuity errors : sum local = 5.01366e-07, global = 1.4993e-07, cumulative = 1.61891e-06
GAMG:  Solving for p, Initial residual = 0.0553039, Final residual = 0.000439764, No Iterations 6
GAMG:  Solving for p, Initial residual = 0.00844777, Final residual = 7.42924e-05, No Iterations 18
GAMG:  Solving for p, Initial residual = 0.00362924, Final residual = 3.21773e-05, No Iterations 10
time step continuity errors : sum local = 2.59713e-07, global = 6.77694e-08, cumulative = 1.68668e-06
PIMPLE: iteration 2
DILUPBiCG:  Solving for Ux, Initial residual = 0.00707775, Final residual = 3.13852e-05, No Iterations 1
DILUPBiCG:  Solving for Uy, Initial residual = 0.0011837, Final residual = 3.56962e-06, No Iterations 1
DILUPBiCG:  Solving for Uz, Initial residual = 0.0038519, Final residual = 1.06275e-05, No Iterations 1
GAMG:  Solving for p, Initial residual = 0.0565273, Final residual = 0.000376293, No Iterations 4
GAMG:  Solving for p, Initial residual = 0.00926269, Final residual = 8.9854e-05, No Iterations 14
GAMG:  Solving for p, Initial residual = 0.0043939, Final residual = 4.13259e-05, No Iterations 8
time step continuity errors : sum local = 2.83083e-07, global = -9.67132e-08, cumulative = 1.58997e-06
GAMG:  Solving for p, Initial residual = 0.0284099, Final residual = 0.000158076, No Iterations 4
GAMG:  Solving for p, Initial residual = 0.00443718, Final residual = 4.14546e-05, No Iterations 12
GAMG:  Solving for p, Initial residual = 0.00203743, Final residual = 1.82795e-05, No Iterations 8
time step continuity errors : sum local = 1.25812e-07, global = -4.10778e-08, cumulative = 1.54889e-06
PIMPLE: iteration 3
DILUPBiCG:  Solving for Ux, Initial residual = 0.00198426, Final residual = 5.11199e-07, No Iterations 2
DILUPBiCG:  Solving for Uy, Initial residual = 0.000328825, Final residual = 6.18289e-06, No Iterations 1
DILUPBiCG:  Solving for Uz, Initial residual = 0.00440336, Final residual = 9.72561e-07, No Iterations 2
GAMG:  Solving for p, Initial residual = 0.0422785, Final residual = 0.000342634, No Iterations 5
GAMG:  Solving for p, Initial residual = 0.00998806, Final residual = 9.77753e-05, No Iterations 13
GAMG:  Solving for p, Initial residual = 0.00463682, Final residual = 4.25576e-05, No Iterations 10
time step continuity errors : sum local = 3.23125e-07, global = -8.40504e-08, cumulative = 1.46484e-06
GAMG:  Solving for p, Initial residual = 0.00303456, Final residual = 2.57641e-05, No Iterations 16
GAMG:  Solving for p, Initial residual = 0.00174322, Final residual = 1.36249e-05, No Iterations 4
GAMG:  Solving for p, Initial residual = 0.000646034, Final residual = 9.62844e-07, No Iterations 36
time step continuity errors : sum local = 7.29649e-09, global = 2.15179e-09, cumulative = 1.46699e-06
DILUPBiCG:  Solving for omega, Initial residual = 0.000656025, Final residual = 1.15804e-06, No Iterations 1
DILUPBiCG:  Solving for k, Initial residual = 0.00487835, Final residual = 1.02525e-06, No Iterations 2
ExecutionTime = 56.74 s  ClockTime = 56 s

End

