/*---------------------------------------------------------------------------*\
| =========                 |                                                 |
| \\      /  F ield         | OpenFOAM: The Open Source CFD Toolbox           |
|  \\    /   O peration     | Version:  2.3.1                                 |
|   \\  /    A nd           | Web:      www.OpenFOAM.org                      |
|    \\/     M anipulation  |                                                 |
\*---------------------------------------------------------------------------*/
Build  : 2.3.1-262087cdf8db
Exec   : pimpleDyMFoam
Date   : Jun 06 2023
Time   : 01:14:42
Host   : "jcosson-VirtualBox"
PID    : 27000
Case   : /home/jcosson/workspace/henersj_shootingdata/calcs/moderate_deformed/primal/100_intervals_05-06-23/sweep32/interval44
nProcs : 1
sigFpe : Enabling floating point exception trapping (FOAM_SIGFPE).
fileModificationChecking : Monitoring run-time modified files using timeStampMaster
allowSystemOperations : Allowing user-supplied system call operations

// * * * * * * * * * * * * * * * * * * * * * * * * * * * * * * * * * * * * * //
Create time

Create mesh for time = 0.443

Selecting dynamicFvMesh dynamicMotionSolverFvMesh
Selecting motion solver: displacementLaplacian
Selecting motion diffusion: quadratic
Selecting motion diffusion: quadratic
Selecting motion diffusion: inverseDistance

PIMPLE: no residual control data found. Calculations will employ 3 corrector loops

Reading field p

Reading field U

Reading/calculating face flux field phi

Selecting incompressible transport model Newtonian
Selecting turbulence model type RASModel
Selecting RAS turbulence model kOmegaSST
kOmegaSSTCoeffs
{
    alphaK1         0.85034;
    alphaK2         1;
    alphaOmega1     0.5;
    alphaOmega2     0.85616;
    gamma1          0.5532;
    gamma2          0.4403;
    beta1           0.075;
    beta2           0.0828;
    betaStar        0.09;
    a1              0.31;
    c1              10;
    Cmu             0.09;
    b1              1;
    F3              false;
}

Reading/calculating face velocity Uf

No finite volume options present

Courant Number mean: 0.27117 max: 0.597628

Starting time loop

Courant Number mean: 0.27117 max: 0.597628
Time = 0.444

GAMG:  Solving for cellDisplacementx, Initial residual = 0, Final residual = 0, No Iterations 0
GAMG:  Solving for cellDisplacementy, Initial residual = 0, Final residual = 0, No Iterations 0
GAMG:  Solving for cellDisplacementz, Initial residual = 0, Final residual = 0, No Iterations 0
PIMPLE: iteration 1
DILUPBiCG:  Solving for Ux, Initial residual = 0.0197407, Final residual = 6.96188e-05, No Iterations 1
DILUPBiCG:  Solving for Uy, Initial residual = 0.00307199, Final residual = 9.54301e-06, No Iterations 1
DILUPBiCG:  Solving for Uz, Initial residual = 0.0112063, Final residual = 2.31313e-05, No Iterations 1
GAMG:  Solving for p, Initial residual = 0.118615, Final residual = 0.000573692, No Iterations 4
GAMG:  Solving for p, Initial residual = 0.0170929, Final residual = 0.000152035, No Iterations 12
GAMG:  Solving for p, Initial residual = 0.00749931, Final residual = 7.06072e-05, No Iterations 10
time step continuity errors : sum local = 5.29633e-07, global = -1.4194e-07, cumulative = -1.4194e-07
GAMG:  Solving for p, Initial residual = 0.0543104, Final residual = 0.00023864, No Iterations 4
GAMG:  Solving for p, Initial residual = 0.00835685, Final residual = 8.01649e-05, No Iterations 10
GAMG:  Solving for p, Initial residual = 0.00374696, Final residual = 3.67106e-05, No Iterations 10
time step continuity errors : sum local = 2.76412e-07, global = -7.44818e-08, cumulative = -2.16421e-07
PIMPLE: iteration 2
DILUPBiCG:  Solving for Ux, Initial residual = 0.0053964, Final residual = 2.23453e-05, No Iterations 1
DILUPBiCG:  Solving for Uy, Initial residual = 0.000866934, Final residual = 6.18091e-06, No Iterations 1
DILUPBiCG:  Solving for Uz, Initial residual = 0.00321561, Final residual = 1.13051e-05, No Iterations 1
GAMG:  Solving for p, Initial residual = 0.0542108, Final residual = 0.000509058, No Iterations 5
GAMG:  Solving for p, Initial residual = 0.0147576, Final residual = 0.000131681, No Iterations 11
GAMG:  Solving for p, Initial residual = 0.004968, Final residual = 4.50702e-05, No Iterations 14
time step continuity errors : sum local = 2.90496e-07, global = 8.83961e-08, cumulative = -1.28025e-07
GAMG:  Solving for p, Initial residual = 0.0287478, Final residual = 0.000269559, No Iterations 4
GAMG:  Solving for p, Initial residual = 0.00698961, Final residual = 6.93713e-05, No Iterations 10
GAMG:  Solving for p, Initial residual = 0.00234868, Final residual = 2.23516e-05, No Iterations 14
time step continuity errors : sum local = 1.45035e-07, global = 4.32987e-08, cumulative = -8.47266e-08
PIMPLE: iteration 3
DILUPBiCG:  Solving for Ux, Initial residual = 0.00109582, Final residual = 7.70475e-06, No Iterations 1
DILUPBiCG:  Solving for Uy, Initial residual = 0.000182645, Final residual = 6.60795e-06, No Iterations 1
DILUPBiCG:  Solving for Uz, Initial residual = 0.00364994, Final residual = 1.04907e-06, No Iterations 2
GAMG:  Solving for p, Initial residual = 0.0522977, Final residual = 0.000391611, No Iterations 5
GAMG:  Solving for p, Initial residual = 0.0142112, Final residual = 0.000121204, No Iterations 12
GAMG:  Solving for p, Initial residual = 0.00622959, Final residual = 6.10487e-05, No Iterations 10
time step continuity errors : sum local = 4.34914e-07, global = 1.15979e-07, cumulative = 3.1252e-08
GAMG:  Solving for p, Initial residual = 0.00387012, Final residual = 3.63378e-05, No Iterations 10
GAMG:  Solving for p, Initial residual = 0.00227919, Final residual = 2.05975e-05, No Iterations 4
GAMG:  Solving for p, Initial residual = 0.00075444, Final residual = 9.44414e-07, No Iterations 42
time step continuity errors : sum local = 6.69748e-09, global = -1.98237e-09, cumulative = 2.92697e-08
DILUPBiCG:  Solving for omega, Initial residual = 0.00117291, Final residual = 1.50343e-06, No Iterations 1
DILUPBiCG:  Solving for k, Initial residual = 0.00628916, Final residual = 1.01477e-06, No Iterations 2
ExecutionTime = 18.21 s  ClockTime = 19 s

End

