/*---------------------------------------------------------------------------*\
| =========                 |                                                 |
| \\      /  F ield         | OpenFOAM: The Open Source CFD Toolbox           |
|  \\    /   O peration     | Version:  2.3.1                                 |
|   \\  /    A nd           | Web:      www.OpenFOAM.org                      |
|    \\/     M anipulation  |                                                 |
\*---------------------------------------------------------------------------*/
Build  : 2.3.1-262087cdf8db
Exec   : pimpleDyMFoam
Date   : Jun 06 2023
Time   : 01:15:35
Host   : "jcosson-VirtualBox"
PID    : 27067
Case   : /home/jcosson/workspace/henersj_shootingdata/calcs/moderate_deformed/primal/100_intervals_05-06-23/sweep32/interval78
nProcs : 1
sigFpe : Enabling floating point exception trapping (FOAM_SIGFPE).
fileModificationChecking : Monitoring run-time modified files using timeStampMaster
allowSystemOperations : Allowing user-supplied system call operations

// * * * * * * * * * * * * * * * * * * * * * * * * * * * * * * * * * * * * * //
Create time

Create mesh for time = 0.477

Selecting dynamicFvMesh dynamicMotionSolverFvMesh
Selecting motion solver: displacementLaplacian
Selecting motion diffusion: quadratic
Selecting motion diffusion: quadratic
Selecting motion diffusion: inverseDistance

PIMPLE: no residual control data found. Calculations will employ 3 corrector loops

Reading field p

Reading field U

Reading/calculating face flux field phi

Selecting incompressible transport model Newtonian
Selecting turbulence model type RASModel
Selecting RAS turbulence model kOmegaSST
bounding k, min: 0 max: 0.000770967 average: 0.000165683
kOmegaSSTCoeffs
{
    alphaK1         0.85034;
    alphaK2         1;
    alphaOmega1     0.5;
    alphaOmega2     0.85616;
    gamma1          0.5532;
    gamma2          0.4403;
    beta1           0.075;
    beta2           0.0828;
    betaStar        0.09;
    a1              0.31;
    c1              10;
    Cmu             0.09;
    b1              1;
    F3              false;
}

Reading/calculating face velocity Uf

No finite volume options present

Courant Number mean: 0.177863 max: 0.395845

Starting time loop

Courant Number mean: 0.177863 max: 0.395845
Time = 0.478

GAMG:  Solving for cellDisplacementx, Initial residual = 0, Final residual = 0, No Iterations 0
GAMG:  Solving for cellDisplacementy, Initial residual = 0, Final residual = 0, No Iterations 0
GAMG:  Solving for cellDisplacementz, Initial residual = 0, Final residual = 0, No Iterations 0
PIMPLE: iteration 1
DILUPBiCG:  Solving for Ux, Initial residual = 0.0614135, Final residual = 0.000243845, No Iterations 1
DILUPBiCG:  Solving for Uy, Initial residual = 0.0105902, Final residual = 2.30125e-05, No Iterations 1
DILUPBiCG:  Solving for Uz, Initial residual = 0.0107707, Final residual = 2.19761e-05, No Iterations 1
GAMG:  Solving for p, Initial residual = 0.121925, Final residual = 0.000849328, No Iterations 6
GAMG:  Solving for p, Initial residual = 0.0144954, Final residual = 0.000131482, No Iterations 18
GAMG:  Solving for p, Initial residual = 0.00645786, Final residual = 6.36247e-05, No Iterations 10
time step continuity errors : sum local = 9.79796e-07, global = 2.63211e-07, cumulative = 2.63211e-07
GAMG:  Solving for p, Initial residual = 0.0526552, Final residual = 0.000486731, No Iterations 4
GAMG:  Solving for p, Initial residual = 0.0073362, Final residual = 6.65255e-05, No Iterations 18
GAMG:  Solving for p, Initial residual = 0.00343355, Final residual = 3.25906e-05, No Iterations 10
time step continuity errors : sum local = 5.02844e-07, global = 1.34595e-07, cumulative = 3.97806e-07
PIMPLE: iteration 2
DILUPBiCG:  Solving for Ux, Initial residual = 0.0171673, Final residual = 0.000102094, No Iterations 1
DILUPBiCG:  Solving for Uy, Initial residual = 0.00311915, Final residual = 6.69677e-06, No Iterations 1
DILUPBiCG:  Solving for Uz, Initial residual = 0.00298453, Final residual = 1.12581e-05, No Iterations 1
GAMG:  Solving for p, Initial residual = 0.0524606, Final residual = 0.00047821, No Iterations 4
GAMG:  Solving for p, Initial residual = 0.00881569, Final residual = 8.55771e-05, No Iterations 16
GAMG:  Solving for p, Initial residual = 0.00394408, Final residual = 3.63525e-05, No Iterations 10
time step continuity errors : sum local = 4.81788e-07, global = -1.27971e-07, cumulative = 2.69835e-07
GAMG:  Solving for p, Initial residual = 0.027079, Final residual = 0.000212211, No Iterations 4
GAMG:  Solving for p, Initial residual = 0.00441437, Final residual = 4.04651e-05, No Iterations 14
GAMG:  Solving for p, Initial residual = 0.00186589, Final residual = 1.7721e-05, No Iterations 10
time step continuity errors : sum local = 2.36018e-07, global = -6.14283e-08, cumulative = 2.08407e-07
PIMPLE: iteration 3
DILUPBiCG:  Solving for Ux, Initial residual = 0.00404994, Final residual = 2.8358e-06, No Iterations 2
DILUPBiCG:  Solving for Uy, Initial residual = 0.000746665, Final residual = 5.89949e-06, No Iterations 1
DILUPBiCG:  Solving for Uz, Initial residual = 0.00675279, Final residual = 3.95452e-06, No Iterations 2
GAMG:  Solving for p, Initial residual = 0.0409507, Final residual = 0.000338954, No Iterations 5
GAMG:  Solving for p, Initial residual = 0.00952418, Final residual = 8.52497e-05, No Iterations 7
GAMG:  Solving for p, Initial residual = 0.00438822, Final residual = 3.80954e-05, No Iterations 10
time step continuity errors : sum local = 5.66734e-07, global = -1.45778e-07, cumulative = 6.26284e-08
GAMG:  Solving for p, Initial residual = 0.00240225, Final residual = 2.2423e-05, No Iterations 16
GAMG:  Solving for p, Initial residual = 0.0013139, Final residual = 1.14862e-05, No Iterations 4
GAMG:  Solving for p, Initial residual = 0.00053781, Final residual = 9.53398e-07, No Iterations 30
time step continuity errors : sum local = 1.40956e-08, global = 4.18157e-09, cumulative = 6.681e-08
DILUPBiCG:  Solving for omega, Initial residual = 0.000774784, Final residual = 7.29203e-07, No Iterations 1
DILUPBiCG:  Solving for k, Initial residual = 0.00416085, Final residual = 8.74343e-07, No Iterations 2
bounding k, min: 0 max: 0.000762843 average: 0.000164552
ExecutionTime = 16.66 s  ClockTime = 17 s

End

