/*---------------------------------------------------------------------------*\
| =========                 |                                                 |
| \\      /  F ield         | OpenFOAM: The Open Source CFD Toolbox           |
|  \\    /   O peration     | Version:  2.3.1                                 |
|   \\  /    A nd           | Web:      www.OpenFOAM.org                      |
|    \\/     M anipulation  |                                                 |
\*---------------------------------------------------------------------------*/
Build  : 2.3.1-262087cdf8db
Exec   : linearisedPimpleDyMFoam
Date   : Jun 06 2023
Time   : 02:22:47
Host   : "jcosson-VirtualBox"
PID    : 29461
Case   : /home/jcosson/workspace/henersj_shootingdata/calcs/moderate_deformed/primal/100_intervals_05-06-23/sweep59/interval82
nProcs : 1
sigFpe : Enabling floating point exception trapping (FOAM_SIGFPE).
fileModificationChecking : Monitoring run-time modified files using timeStampMaster
allowSystemOperations : Allowing user-supplied system call operations

// * * * * * * * * * * * * * * * * * * * * * * * * * * * * * * * * * * * * * //
Create time

Create mesh for time = 0.481

Selecting dynamicFvMesh dynamicMotionSolverFvMesh
Selecting motion solver: displacementLaplacian
Selecting motion diffusion: quadratic
Selecting motion diffusion: quadratic
Selecting motion diffusion: inverseDistance
Reading field linP

Reading field linU

starte createPhia.H

Reading/calculating face flux field linPhi

Adjungierte Interpolation durchgefuehrt

createPhia.H verlassen

setRefCell ausgefuehrt

No finite volume options present


PIMPLE: no residual control data found. Calculations will employ 3 corrector loops


Starting time loop

Time = 0.482

Reading field p

Reading field U

Read primal fluxes 

Reading primal face flux fields phi/meshPhi

Created primal fluxes 

Selecting incompressible transport model Newtonian
singlePhaseTransportModel gewaehlt 

Selecting turbulence model type RASModel
Selecting RAS turbulence model kOmegaSST
bounding k, min: 0 max: 0.000692658 average: 0.000156469
kOmegaSSTCoeffs
{
    alphaK1         0.85034;
    alphaK2         1;
    alphaOmega1     0.5;
    alphaOmega2     0.85616;
    gamma1          0.5532;
    gamma2          0.4403;
    beta1           0.075;
    beta2           0.0828;
    betaStar        0.09;
    a1              0.31;
    c1              10;
    Cmu             0.09;
    b1              1;
    F3              false;
}

autoPtr ausgefuehrt

Reading/calculating face velocity Uf

Init adjoint face velocity linUf

Courant Number mean: 0.150452 max: 0.329041
Adjoint Courant Number mean: 0.000123241 max: 0.00145323
GAMG:  Solving for cellDisplacementx, Initial residual = 0, Final residual = 0, No Iterations 0
GAMG:  Solving for cellDisplacementy, Initial residual = 0, Final residual = 0, No Iterations 0
GAMG:  Solving for cellDisplacementz, Initial residual = 0, Final residual = 0, No Iterations 0
PIMPLE: iteration 1
DILUPBiCG:  Solving for linUx, Initial residual = 0.0220781, Final residual = 7.43645e-05, No Iterations 1
DILUPBiCG:  Solving for linUy, Initial residual = 0.0412049, Final residual = 0.000106397, No Iterations 1
DILUPBiCG:  Solving for linUz, Initial residual = 0.0810297, Final residual = 0.000161908, No Iterations 1
GAMG:  Solving for linP, Initial residual = 1, Final residual = 0.00302882, No Iterations 3
GAMG:  Solving for linP, Initial residual = 0.0194191, Final residual = 0.000107155, No Iterations 4
GAMG:  Solving for linP, Initial residual = 0.00607053, Final residual = 5.06407e-05, No Iterations 3
Adjoint continuity errors : sum local = 4.27887e-09, global = -9.50858e-11, cumulative = -9.50858e-11
GAMG:  Solving for linP, Initial residual = 0.0274689, Final residual = 0.0002558, No Iterations 3
GAMG:  Solving for linP, Initial residual = 0.00422705, Final residual = 2.94649e-05, No Iterations 4
GAMG:  Solving for linP, Initial residual = 0.00150404, Final residual = 7.99892e-06, No Iterations 4
Adjoint continuity errors : sum local = 6.50105e-10, global = -4.31919e-11, cumulative = -1.38278e-10
PIMPLE: iteration 2
DILUPBiCG:  Solving for linUx, Initial residual = 0.00201323, Final residual = 0.000112958, No Iterations 1
DILUPBiCG:  Solving for linUy, Initial residual = 0.00397202, Final residual = 3.0838e-05, No Iterations 1
DILUPBiCG:  Solving for linUz, Initial residual = 0.00619053, Final residual = 1.35496e-05, No Iterations 1
GAMG:  Solving for linP, Initial residual = 0.0290545, Final residual = 9.51563e-05, No Iterations 3
GAMG:  Solving for linP, Initial residual = 0.00244031, Final residual = 1.64038e-05, No Iterations 3
GAMG:  Solving for linP, Initial residual = 0.000727172, Final residual = 7.00581e-06, No Iterations 3
Adjoint continuity errors : sum local = 5.83672e-10, global = 3.91611e-11, cumulative = -9.91166e-11
GAMG:  Solving for linP, Initial residual = 0.00136557, Final residual = 1.1411e-05, No Iterations 3
GAMG:  Solving for linP, Initial residual = 0.000357753, Final residual = 2.73e-06, No Iterations 3
GAMG:  Solving for linP, Initial residual = 0.000118359, Final residual = 4.89439e-07, No Iterations 4
Adjoint continuity errors : sum local = 4.07478e-11, global = 5.29272e-12, cumulative = -9.38239e-11
PIMPLE: iteration 3
DILUPBiCG:  Solving for linUx, Initial residual = 0.000243907, Final residual = 1.94604e-06, No Iterations 1
DILUPBiCG:  Solving for linUy, Initial residual = 0.00043923, Final residual = 4.99069e-06, No Iterations 1
DILUPBiCG:  Solving for linUz, Initial residual = 0.000644007, Final residual = 5.51737e-06, No Iterations 1
GAMG:  Solving for linP, Initial residual = 0.0368904, Final residual = 0.000264401, No Iterations 2
GAMG:  Solving for linP, Initial residual = 0.00167031, Final residual = 1.5012e-05, No Iterations 3
GAMG:  Solving for linP, Initial residual = 0.00057171, Final residual = 1.68168e-06, No Iterations 4
Adjoint continuity errors : sum local = 1.46e-10, global = 1.57657e-11, cumulative = -7.80582e-11
GAMG:  Solving for linP, Initial residual = 0.0013933, Final residual = 6.90889e-06, No Iterations 3
GAMG:  Solving for linP, Initial residual = 0.000175454, Final residual = 1.33699e-06, No Iterations 3
GAMG:  Solving for linP, Initial residual = 6.35874e-05, Final residual = 7.78386e-07, No Iterations 3
Adjoint continuity errors : sum local = 6.77035e-11, global = 1.82696e-12, cumulative = -7.62313e-11
ExecutionTime = 11.87 s  ClockTime = 12 s

End

