/*---------------------------------------------------------------------------*\
| =========                 |                                                 |
| \\      /  F ield         | OpenFOAM: The Open Source CFD Toolbox           |
|  \\    /   O peration     | Version:  2.3.1                                 |
|   \\  /    A nd           | Web:      www.OpenFOAM.org                      |
|    \\/     M anipulation  |                                                 |
\*---------------------------------------------------------------------------*/
Build  : 2.3.1-262087cdf8db
Exec   : pimpleDyMFoam
Date   : Jun 05 2023
Time   : 18:37:13
Host   : "jcosson-VirtualBox"
PID    : 20510
Case   : /home/jcosson/workspace/henersj_shootingdata/calcs/moderate_deformed/primal/56_intervals_05-06-23/sweep17/interval43
nProcs : 1
sigFpe : Enabling floating point exception trapping (FOAM_SIGFPE).
fileModificationChecking : Monitoring run-time modified files using timeStampMaster
allowSystemOperations : Allowing user-supplied system call operations

// * * * * * * * * * * * * * * * * * * * * * * * * * * * * * * * * * * * * * //
Create time

Create mesh for time = 0.475

Selecting dynamicFvMesh dynamicMotionSolverFvMesh
Selecting motion solver: displacementLaplacian
Selecting motion diffusion: quadratic
Selecting motion diffusion: quadratic
Selecting motion diffusion: inverseDistance

PIMPLE: no residual control data found. Calculations will employ 3 corrector loops

Reading field p

Reading field U

Reading/calculating face flux field phi

Selecting incompressible transport model Newtonian
Selecting turbulence model type RASModel
Selecting RAS turbulence model kOmegaSST
kOmegaSSTCoeffs
{
    alphaK1         0.85034;
    alphaK2         1;
    alphaOmega1     0.5;
    alphaOmega2     0.85616;
    gamma1          0.5532;
    gamma2          0.4403;
    beta1           0.075;
    beta2           0.0828;
    betaStar        0.09;
    a1              0.31;
    c1              10;
    Cmu             0.09;
    b1              1;
    F3              false;
}

Reading/calculating face velocity Uf

No finite volume options present

Courant Number mean: 0.189208 max: 0.420844

Starting time loop

Courant Number mean: 0.189208 max: 0.420844
Time = 0.476

GAMG:  Solving for cellDisplacementx, Initial residual = 0, Final residual = 0, No Iterations 0
GAMG:  Solving for cellDisplacementy, Initial residual = 0, Final residual = 0, No Iterations 0
GAMG:  Solving for cellDisplacementz, Initial residual = 0, Final residual = 0, No Iterations 0
PIMPLE: iteration 1
DILUPBiCG:  Solving for Ux, Initial residual = 0.0585972, Final residual = 0.000236312, No Iterations 1
DILUPBiCG:  Solving for Uy, Initial residual = 0.0099255, Final residual = 2.19308e-05, No Iterations 1
DILUPBiCG:  Solving for Uz, Initial residual = 0.0110253, Final residual = 2.42597e-05, No Iterations 1
GAMG:  Solving for p, Initial residual = 0.123563, Final residual = 0.000900336, No Iterations 6
GAMG:  Solving for p, Initial residual = 0.0144593, Final residual = 0.000136873, No Iterations 18
GAMG:  Solving for p, Initial residual = 0.00643258, Final residual = 5.43011e-05, No Iterations 12
time step continuity errors : sum local = 8.32672e-07, global = 2.51049e-07, cumulative = 2.51049e-07
GAMG:  Solving for p, Initial residual = 0.0529891, Final residual = 0.000508263, No Iterations 4
GAMG:  Solving for p, Initial residual = 0.0073276, Final residual = 6.8769e-05, No Iterations 18
GAMG:  Solving for p, Initial residual = 0.00343147, Final residual = 3.35771e-05, No Iterations 10
time step continuity errors : sum local = 5.15508e-07, global = 1.38529e-07, cumulative = 3.89578e-07
PIMPLE: iteration 2
DILUPBiCG:  Solving for Ux, Initial residual = 0.016604, Final residual = 9.92791e-05, No Iterations 1
DILUPBiCG:  Solving for Uy, Initial residual = 0.00296508, Final residual = 6.48386e-06, No Iterations 1
DILUPBiCG:  Solving for Uz, Initial residual = 0.0030912, Final residual = 1.17531e-05, No Iterations 1
GAMG:  Solving for p, Initial residual = 0.052981, Final residual = 0.000475494, No Iterations 4
GAMG:  Solving for p, Initial residual = 0.00879122, Final residual = 8.56998e-05, No Iterations 16
GAMG:  Solving for p, Initial residual = 0.0039515, Final residual = 3.62023e-05, No Iterations 10
time step continuity errors : sum local = 4.76156e-07, global = -1.27567e-07, cumulative = 2.6201e-07
GAMG:  Solving for p, Initial residual = 0.0273007, Final residual = 0.000209306, No Iterations 4
GAMG:  Solving for p, Initial residual = 0.00439161, Final residual = 4.01331e-05, No Iterations 14
GAMG:  Solving for p, Initial residual = 0.00186746, Final residual = 1.75389e-05, No Iterations 10
time step continuity errors : sum local = 2.31864e-07, global = -6.05992e-08, cumulative = 2.01411e-07
PIMPLE: iteration 3
DILUPBiCG:  Solving for Ux, Initial residual = 0.00398232, Final residual = 2.68253e-06, No Iterations 2
DILUPBiCG:  Solving for Uy, Initial residual = 0.000718127, Final residual = 6.2344e-06, No Iterations 1
DILUPBiCG:  Solving for Uz, Initial residual = 0.00697355, Final residual = 3.99829e-06, No Iterations 2
GAMG:  Solving for p, Initial residual = 0.0406134, Final residual = 0.000347767, No Iterations 5
GAMG:  Solving for p, Initial residual = 0.00946769, Final residual = 9.21856e-05, No Iterations 7
GAMG:  Solving for p, Initial residual = 0.00435843, Final residual = 4.00127e-05, No Iterations 10
time step continuity errors : sum local = 5.90642e-07, global = -1.51282e-07, cumulative = 5.01294e-08
GAMG:  Solving for p, Initial residual = 0.00242227, Final residual = 2.29937e-05, No Iterations 16
GAMG:  Solving for p, Initial residual = 0.00132894, Final residual = 1.17349e-05, No Iterations 4
GAMG:  Solving for p, Initial residual = 0.000540806, Final residual = 9.02002e-07, No Iterations 32
time step continuity errors : sum local = 1.32419e-08, global = 3.90002e-09, cumulative = 5.40294e-08
DILUPBiCG:  Solving for omega, Initial residual = 0.000699238, Final residual = 7.08655e-07, No Iterations 1
DILUPBiCG:  Solving for k, Initial residual = 0.00425454, Final residual = 1.03308e-06, No Iterations 2
bounding k, min: 0 max: 0.000778124 average: 0.00016681
ExecutionTime = 17.23 s  ClockTime = 17 s

Courant Number mean: 0.183525 max: 0.40832
Time = 0.477

GAMG:  Solving for cellDisplacementx, Initial residual = 0, Final residual = 0, No Iterations 0
GAMG:  Solving for cellDisplacementy, Initial residual = 0, Final residual = 0, No Iterations 0
GAMG:  Solving for cellDisplacementz, Initial residual = 0, Final residual = 0, No Iterations 0
PIMPLE: iteration 1
DILUPBiCG:  Solving for Ux, Initial residual = 0.0601264, Final residual = 0.000240547, No Iterations 1
DILUPBiCG:  Solving for Uy, Initial residual = 0.0102608, Final residual = 2.24482e-05, No Iterations 1
DILUPBiCG:  Solving for Uz, Initial residual = 0.00978542, Final residual = 2.15231e-05, No Iterations 1
GAMG:  Solving for p, Initial residual = 0.115194, Final residual = 0.000878616, No Iterations 6
GAMG:  Solving for p, Initial residual = 0.0127793, Final residual = 0.000114709, No Iterations 20
GAMG:  Solving for p, Initial residual = 0.0057809, Final residual = 5.57391e-05, No Iterations 10
time step continuity errors : sum local = 8.59431e-07, global = 2.29204e-07, cumulative = 2.83233e-07
GAMG:  Solving for p, Initial residual = 0.0494805, Final residual = 0.000491421, No Iterations 4
GAMG:  Solving for p, Initial residual = 0.00649301, Final residual = 5.71576e-05, No Iterations 20
GAMG:  Solving for p, Initial residual = 0.00310153, Final residual = 2.76299e-05, No Iterations 10
time step continuity errors : sum local = 4.26398e-07, global = 1.1313e-07, cumulative = 3.96363e-07
PIMPLE: iteration 2
DILUPBiCG:  Solving for Ux, Initial residual = 0.0169193, Final residual = 0.000100929, No Iterations 1
DILUPBiCG:  Solving for Uy, Initial residual = 0.00304711, Final residual = 6.60088e-06, No Iterations 1
DILUPBiCG:  Solving for Uz, Initial residual = 0.00297695, Final residual = 1.14468e-05, No Iterations 1
GAMG:  Solving for p, Initial residual = 0.0489338, Final residual = 0.000475093, No Iterations 4
GAMG:  Solving for p, Initial residual = 0.00782992, Final residual = 7.26051e-05, No Iterations 18
GAMG:  Solving for p, Initial residual = 0.00358426, Final residual = 3.35986e-05, No Iterations 8
time step continuity errors : sum local = 4.43984e-07, global = -1.37035e-07, cumulative = 2.59329e-07
GAMG:  Solving for p, Initial residual = 0.0252588, Final residual = 0.000210485, No Iterations 4
GAMG:  Solving for p, Initial residual = 0.0039131, Final residual = 3.36828e-05, No Iterations 16
GAMG:  Solving for p, Initial residual = 0.00165261, Final residual = 1.63417e-05, No Iterations 8
time step continuity errors : sum local = 2.1712e-07, global = -5.98204e-08, cumulative = 1.99508e-07
PIMPLE: iteration 3
DILUPBiCG:  Solving for Ux, Initial residual = 0.0040182, Final residual = 2.76981e-06, No Iterations 2
DILUPBiCG:  Solving for Uy, Initial residual = 0.00073062, Final residual = 6.0767e-06, No Iterations 1
DILUPBiCG:  Solving for Uz, Initial residual = 0.00679266, Final residual = 3.99468e-06, No Iterations 2
GAMG:  Solving for p, Initial residual = 0.040045, Final residual = 0.000340706, No Iterations 5
GAMG:  Solving for p, Initial residual = 0.0093838, Final residual = 8.6531e-05, No Iterations 7
GAMG:  Solving for p, Initial residual = 0.00429138, Final residual = 3.82772e-05, No Iterations 10
time step continuity errors : sum local = 5.68289e-07, global = -1.45938e-07, cumulative = 5.35697e-08
GAMG:  Solving for p, Initial residual = 0.00237491, Final residual = 2.3365e-05, No Iterations 16
GAMG:  Solving for p, Initial residual = 0.00130563, Final residual = 1.19008e-05, No Iterations 4
GAMG:  Solving for p, Initial residual = 0.000529358, Final residual = 9.5493e-07, No Iterations 32
time step continuity errors : sum local = 1.40944e-08, global = 4.15292e-09, cumulative = 5.77226e-08
DILUPBiCG:  Solving for omega, Initial residual = 0.000736256, Final residual = 7.19015e-07, No Iterations 1
DILUPBiCG:  Solving for k, Initial residual = 0.00420741, Final residual = 9.52135e-07, No Iterations 2
bounding k, min: 0 max: 0.000770961 average: 0.000165682
ExecutionTime = 32.31 s  ClockTime = 32 s

End

