/*---------------------------------------------------------------------------*\
| =========                 |                                                 |
| \\      /  F ield         | OpenFOAM: The Open Source CFD Toolbox           |
|  \\    /   O peration     | Version:  2.3.1                                 |
|   \\  /    A nd           | Web:      www.OpenFOAM.org                      |
|    \\/     M anipulation  |                                                 |
\*---------------------------------------------------------------------------*/
Build  : 2.3.1-262087cdf8db
Exec   : linearisedPimpleDyMFoam
Date   : Jun 06 2023
Time   : 02:55:20
Host   : "jcosson-VirtualBox"
PID    : 13541
Case   : /home/jcosson/workspace/henersj_shootingdata/calcs/moderate_deformed/primal/100_intervals_05-06-23/sweep80/interval91
nProcs : 1
sigFpe : Enabling floating point exception trapping (FOAM_SIGFPE).
fileModificationChecking : Monitoring run-time modified files using timeStampMaster
allowSystemOperations : Allowing user-supplied system call operations

// * * * * * * * * * * * * * * * * * * * * * * * * * * * * * * * * * * * * * //
Create time

Create mesh for time = 0.49

Selecting dynamicFvMesh dynamicMotionSolverFvMesh
Selecting motion solver: displacementLaplacian
Selecting motion diffusion: quadratic
Selecting motion diffusion: quadratic
Selecting motion diffusion: inverseDistance
Reading field linP

Reading field linU

starte createPhia.H

Reading/calculating face flux field linPhi

Adjungierte Interpolation durchgefuehrt

createPhia.H verlassen

setRefCell ausgefuehrt

No finite volume options present


PIMPLE: no residual control data found. Calculations will employ 3 corrector loops


Starting time loop

Time = 0.491

Reading field p

Reading field U

Read primal fluxes 

Reading primal face flux fields phi/meshPhi

Created primal fluxes 

Selecting incompressible transport model Newtonian
singlePhaseTransportModel gewaehlt 

Selecting turbulence model type RASModel
Selecting RAS turbulence model kOmegaSST
bounding k, min: 0 max: 0.00056377 average: 0.000147528
kOmegaSSTCoeffs
{
    alphaK1         0.85034;
    alphaK2         1;
    alphaOmega1     0.5;
    alphaOmega2     0.85616;
    gamma1          0.5532;
    gamma2          0.4403;
    beta1           0.075;
    beta2           0.0828;
    betaStar        0.09;
    a1              0.31;
    c1              10;
    Cmu             0.09;
    b1              1;
    F3              false;
}

autoPtr ausgefuehrt

Reading/calculating face velocity Uf

Init adjoint face velocity linUf

Courant Number mean: 0.112397 max: 0.24279
Adjoint Courant Number mean: 0.000111646 max: 0.00113761
GAMG:  Solving for cellDisplacementx, Initial residual = 0, Final residual = 0, No Iterations 0
GAMG:  Solving for cellDisplacementy, Initial residual = 0, Final residual = 0, No Iterations 0
GAMG:  Solving for cellDisplacementz, Initial residual = 0, Final residual = 0, No Iterations 0
PIMPLE: iteration 1
DILUPBiCG:  Solving for linUx, Initial residual = 0.0108431, Final residual = 2.90618e-05, No Iterations 1
DILUPBiCG:  Solving for linUy, Initial residual = 0.0225421, Final residual = 3.67818e-05, No Iterations 1
DILUPBiCG:  Solving for linUz, Initial residual = 0.048187, Final residual = 9.20239e-05, No Iterations 1
GAMG:  Solving for linP, Initial residual = 1, Final residual = 0.00553195, No Iterations 3
GAMG:  Solving for linP, Initial residual = 0.0316747, Final residual = 0.000293551, No Iterations 4
GAMG:  Solving for linP, Initial residual = 0.0105811, Final residual = 7.80321e-05, No Iterations 4
Adjoint continuity errors : sum local = 2.44227e-09, global = 3.00298e-10, cumulative = 3.00298e-10
GAMG:  Solving for linP, Initial residual = 0.0226459, Final residual = 0.000131784, No Iterations 4
GAMG:  Solving for linP, Initial residual = 0.005856, Final residual = 3.33841e-05, No Iterations 4
GAMG:  Solving for linP, Initial residual = 0.00213414, Final residual = 7.93532e-06, No Iterations 5
Adjoint continuity errors : sum local = 2.41862e-10, global = -2.64605e-11, cumulative = 2.73838e-10
PIMPLE: iteration 2
DILUPBiCG:  Solving for linUx, Initial residual = 0.00105935, Final residual = 5.27732e-06, No Iterations 1
DILUPBiCG:  Solving for linUy, Initial residual = 0.00224666, Final residual = 1.13401e-05, No Iterations 1
DILUPBiCG:  Solving for linUz, Initial residual = 0.00308609, Final residual = 8.51015e-06, No Iterations 1
GAMG:  Solving for linP, Initial residual = 0.0276307, Final residual = 0.000125892, No Iterations 3
GAMG:  Solving for linP, Initial residual = 0.0033769, Final residual = 1.53151e-05, No Iterations 4
GAMG:  Solving for linP, Initial residual = 0.00104378, Final residual = 4.65057e-06, No Iterations 4
Adjoint continuity errors : sum local = 1.44409e-10, global = 3.49897e-11, cumulative = 3.08828e-10
GAMG:  Solving for linP, Initial residual = 0.00121348, Final residual = 5.87595e-06, No Iterations 4
GAMG:  Solving for linP, Initial residual = 0.00041925, Final residual = 3.50032e-06, No Iterations 3
GAMG:  Solving for linP, Initial residual = 0.000143601, Final residual = 7.93851e-07, No Iterations 4
Adjoint continuity errors : sum local = 2.46438e-11, global = -6.48163e-13, cumulative = 3.08179e-10
PIMPLE: iteration 3
DILUPBiCG:  Solving for linUx, Initial residual = 0.000109253, Final residual = 6.14035e-07, No Iterations 1
DILUPBiCG:  Solving for linUy, Initial residual = 0.000211757, Final residual = 1.1689e-06, No Iterations 1
DILUPBiCG:  Solving for linUz, Initial residual = 0.000253936, Final residual = 1.58541e-06, No Iterations 1
GAMG:  Solving for linP, Initial residual = 0.0356532, Final residual = 0.000314333, No Iterations 2
GAMG:  Solving for linP, Initial residual = 0.00235787, Final residual = 1.65177e-05, No Iterations 4
GAMG:  Solving for linP, Initial residual = 0.000899071, Final residual = 5.33465e-06, No Iterations 4
Adjoint continuity errors : sum local = 1.73124e-10, global = 1.27801e-11, cumulative = 3.2096e-10
GAMG:  Solving for linP, Initial residual = 0.00104784, Final residual = 5.12043e-06, No Iterations 3
GAMG:  Solving for linP, Initial residual = 0.000217672, Final residual = 1.85232e-06, No Iterations 3
GAMG:  Solving for linP, Initial residual = 8.57561e-05, Final residual = 4.03178e-07, No Iterations 4
Adjoint continuity errors : sum local = 1.30994e-11, global = -2.45932e-12, cumulative = 3.185e-10
ExecutionTime = 12.61 s  ClockTime = 13 s

End

