/*---------------------------------------------------------------------------*\
| =========                 |                                                 |
| \\      /  F ield         | OpenFOAM: The Open Source CFD Toolbox           |
|  \\    /   O peration     | Version:  2.3.1                                 |
|   \\  /    A nd           | Web:      www.OpenFOAM.org                      |
|    \\/     M anipulation  |                                                 |
\*---------------------------------------------------------------------------*/
Build  : 2.3.1-262087cdf8db
Exec   : linearisedPimpleDyMFoam
Date   : Jun 06 2023
Time   : 00:16:46
Host   : "jcosson-VirtualBox"
PID    : 30644
Case   : /home/jcosson/workspace/henersj_shootingdata/calcs/moderate_deformed/primal/100_intervals_05-06-23/sweep14/interval16
nProcs : 1
sigFpe : Enabling floating point exception trapping (FOAM_SIGFPE).
fileModificationChecking : Monitoring run-time modified files using timeStampMaster
allowSystemOperations : Allowing user-supplied system call operations

// * * * * * * * * * * * * * * * * * * * * * * * * * * * * * * * * * * * * * //
Create time

Create mesh for time = 0.415

Selecting dynamicFvMesh dynamicMotionSolverFvMesh
Selecting motion solver: displacementLaplacian
Selecting motion diffusion: quadratic
Selecting motion diffusion: quadratic
Selecting motion diffusion: inverseDistance
Reading field linP

Reading field linU

starte createPhia.H

Reading/calculating face flux field linPhi

Adjungierte Interpolation durchgefuehrt

createPhia.H verlassen

setRefCell ausgefuehrt

No finite volume options present


PIMPLE: no residual control data found. Calculations will employ 3 corrector loops


Starting time loop

Time = 0.416

Reading field p

Reading field U

Read primal fluxes 

Reading primal face flux fields phi/meshPhi

Created primal fluxes 

Selecting incompressible transport model Newtonian
singlePhaseTransportModel gewaehlt 

Selecting turbulence model type RASModel
Selecting RAS turbulence model kOmegaSST
kOmegaSSTCoeffs
{
    alphaK1         0.85034;
    alphaK2         1;
    alphaOmega1     0.5;
    alphaOmega2     0.85616;
    gamma1          0.5532;
    gamma2          0.4403;
    beta1           0.075;
    beta2           0.0828;
    betaStar        0.09;
    a1              0.31;
    c1              10;
    Cmu             0.09;
    b1              1;
    F3              false;
}

autoPtr ausgefuehrt

Reading/calculating face velocity Uf

Init adjoint face velocity linUf

Courant Number mean: 0.138505 max: 0.298969
Adjoint Courant Number mean: 0.000166824 max: 0.00575028
GAMG:  Solving for cellDisplacementx, Initial residual = 0, Final residual = 0, No Iterations 0
GAMG:  Solving for cellDisplacementy, Initial residual = 0, Final residual = 0, No Iterations 0
GAMG:  Solving for cellDisplacementz, Initial residual = 0, Final residual = 0, No Iterations 0
PIMPLE: iteration 1
DILUPBiCG:  Solving for linUx, Initial residual = 0.03134, Final residual = 5.08701e-05, No Iterations 1
DILUPBiCG:  Solving for linUy, Initial residual = 0.0593186, Final residual = 6.66025e-05, No Iterations 1
DILUPBiCG:  Solving for linUz, Initial residual = 0.0745379, Final residual = 0.000103814, No Iterations 1
GAMG:  Solving for linP, Initial residual = 1, Final residual = 0.00395635, No Iterations 3
GAMG:  Solving for linP, Initial residual = 0.0245936, Final residual = 0.000115848, No Iterations 5
GAMG:  Solving for linP, Initial residual = 0.00843722, Final residual = 6.84648e-05, No Iterations 4
Adjoint continuity errors : sum local = 1.4675e-08, global = -1.7624e-09, cumulative = -1.7624e-09
GAMG:  Solving for linP, Initial residual = 0.0206623, Final residual = 0.00020575, No Iterations 3
GAMG:  Solving for linP, Initial residual = 0.00432392, Final residual = 2.58838e-05, No Iterations 4
GAMG:  Solving for linP, Initial residual = 0.00155985, Final residual = 1.2557e-05, No Iterations 4
Adjoint continuity errors : sum local = 2.65395e-09, global = 1.75613e-10, cumulative = -1.58679e-09
PIMPLE: iteration 2
DILUPBiCG:  Solving for linUx, Initial residual = 0.00602343, Final residual = 5.17297e-05, No Iterations 1
DILUPBiCG:  Solving for linUy, Initial residual = 0.0111052, Final residual = 2.13953e-05, No Iterations 1
DILUPBiCG:  Solving for linUz, Initial residual = 0.0146599, Final residual = 3.89898e-05, No Iterations 1
GAMG:  Solving for linP, Initial residual = 0.032948, Final residual = 0.000190089, No Iterations 3
GAMG:  Solving for linP, Initial residual = 0.00356044, Final residual = 2.14347e-05, No Iterations 4
GAMG:  Solving for linP, Initial residual = 0.00112817, Final residual = 9.90511e-06, No Iterations 3
Adjoint continuity errors : sum local = 2.1299e-09, global = 2.32722e-11, cumulative = -1.56352e-09
GAMG:  Solving for linP, Initial residual = 0.00168, Final residual = 9.8471e-06, No Iterations 4
GAMG:  Solving for linP, Initial residual = 0.000515035, Final residual = 1.80788e-06, No Iterations 4
GAMG:  Solving for linP, Initial residual = 0.000174975, Final residual = 1.28675e-06, No Iterations 4
Adjoint continuity errors : sum local = 2.76694e-10, global = -1.99576e-11, cumulative = -1.58347e-09
PIMPLE: iteration 3
DILUPBiCG:  Solving for linUx, Initial residual = 0.000549753, Final residual = 5.07848e-07, No Iterations 2
DILUPBiCG:  Solving for linUy, Initial residual = 0.00103422, Final residual = 3.19927e-06, No Iterations 1
DILUPBiCG:  Solving for linUz, Initial residual = 0.00104134, Final residual = 3.03715e-06, No Iterations 1
GAMG:  Solving for linP, Initial residual = 0.0413737, Final residual = 0.000112466, No Iterations 3
GAMG:  Solving for linP, Initial residual = 0.00190214, Final residual = 1.30858e-05, No Iterations 4
GAMG:  Solving for linP, Initial residual = 0.000704097, Final residual = 4.41663e-06, No Iterations 4
Adjoint continuity errors : sum local = 9.74832e-10, global = 2.53835e-10, cumulative = -1.32964e-09
GAMG:  Solving for linP, Initial residual = 0.00113798, Final residual = 4.92035e-06, No Iterations 3
GAMG:  Solving for linP, Initial residual = 0.000169655, Final residual = 1.24921e-06, No Iterations 4
GAMG:  Solving for linP, Initial residual = 8.24456e-05, Final residual = 8.44529e-07, No Iterations 3
Adjoint continuity errors : sum local = 1.86502e-10, global = 5.24756e-11, cumulative = -1.27716e-09
ExecutionTime = 12.24 s  ClockTime = 12 s

End

