/*---------------------------------------------------------------------------*\
| =========                 |                                                 |
| \\      /  F ield         | OpenFOAM: The Open Source CFD Toolbox           |
|  \\    /   O peration     | Version:  2.3.1                                 |
|   \\  /    A nd           | Web:      www.OpenFOAM.org                      |
|    \\/     M anipulation  |                                                 |
\*---------------------------------------------------------------------------*/
Build  : 2.3.1-262087cdf8db
Exec   : linearisedPimpleDyMFoam
Date   : Jun 06 2023
Time   : 00:17:22
Host   : "jcosson-VirtualBox"
PID    : 30699
Case   : /home/jcosson/workspace/henersj_shootingdata/calcs/moderate_deformed/primal/100_intervals_05-06-23/sweep14/interval68
nProcs : 1
sigFpe : Enabling floating point exception trapping (FOAM_SIGFPE).
fileModificationChecking : Monitoring run-time modified files using timeStampMaster
allowSystemOperations : Allowing user-supplied system call operations

// * * * * * * * * * * * * * * * * * * * * * * * * * * * * * * * * * * * * * //
Create time

Create mesh for time = 0.467

Selecting dynamicFvMesh dynamicMotionSolverFvMesh
Selecting motion solver: displacementLaplacian
Selecting motion diffusion: quadratic
Selecting motion diffusion: quadratic
Selecting motion diffusion: inverseDistance
Reading field linP

Reading field linU

starte createPhia.H

Reading/calculating face flux field linPhi

Adjungierte Interpolation durchgefuehrt

createPhia.H verlassen

setRefCell ausgefuehrt

No finite volume options present


PIMPLE: no residual control data found. Calculations will employ 3 corrector loops


Starting time loop

Time = 0.468

Reading field p

Reading field U

Read primal fluxes 

Reading primal face flux fields phi/meshPhi

Created primal fluxes 

Selecting incompressible transport model Newtonian
singlePhaseTransportModel gewaehlt 

Selecting turbulence model type RASModel
Selecting RAS turbulence model kOmegaSST
kOmegaSSTCoeffs
{
    alphaK1         0.85034;
    alphaK2         1;
    alphaOmega1     0.5;
    alphaOmega2     0.85616;
    gamma1          0.5532;
    gamma2          0.4403;
    beta1           0.075;
    beta2           0.0828;
    betaStar        0.09;
    a1              0.31;
    c1              10;
    Cmu             0.09;
    b1              1;
    F3              false;
}

autoPtr ausgefuehrt

Reading/calculating face velocity Uf

Init adjoint face velocity linUf

Courant Number mean: 0.227657 max: 0.508438
Adjoint Courant Number mean: 0.000166824 max: 0.00575028
GAMG:  Solving for cellDisplacementx, Initial residual = 0, Final residual = 0, No Iterations 0
GAMG:  Solving for cellDisplacementy, Initial residual = 0, Final residual = 0, No Iterations 0
GAMG:  Solving for cellDisplacementz, Initial residual = 0, Final residual = 0, No Iterations 0
PIMPLE: iteration 1
DILUPBiCG:  Solving for linUx, Initial residual = 0.0526383, Final residual = 0.000137373, No Iterations 1
DILUPBiCG:  Solving for linUy, Initial residual = 0.100705, Final residual = 0.000188232, No Iterations 1
DILUPBiCG:  Solving for linUz, Initial residual = 0.123707, Final residual = 0.000269298, No Iterations 1
GAMG:  Solving for linP, Initial residual = 1, Final residual = 0.00983524, No Iterations 2
GAMG:  Solving for linP, Initial residual = 0.0174274, Final residual = 0.000113283, No Iterations 4
GAMG:  Solving for linP, Initial residual = 0.00655604, Final residual = 4.97697e-05, No Iterations 4
Adjoint continuity errors : sum local = 1.63849e-08, global = -5.31113e-10, cumulative = -5.31113e-10
GAMG:  Solving for linP, Initial residual = 0.0301288, Final residual = 0.000219284, No Iterations 3
GAMG:  Solving for linP, Initial residual = 0.004215, Final residual = 2.68757e-05, No Iterations 4
GAMG:  Solving for linP, Initial residual = 0.00139224, Final residual = 8.61132e-06, No Iterations 4
Adjoint continuity errors : sum local = 2.76206e-09, global = 2.65825e-10, cumulative = -2.65289e-10
PIMPLE: iteration 2
DILUPBiCG:  Solving for linUx, Initial residual = 0.00940899, Final residual = 3.58039e-05, No Iterations 1
DILUPBiCG:  Solving for linUy, Initial residual = 0.0169629, Final residual = 4.62133e-05, No Iterations 1
DILUPBiCG:  Solving for linUz, Initial residual = 0.0199092, Final residual = 5.98243e-05, No Iterations 1
GAMG:  Solving for linP, Initial residual = 0.0415744, Final residual = 0.000162437, No Iterations 3
GAMG:  Solving for linP, Initial residual = 0.00305696, Final residual = 2.80762e-05, No Iterations 3
GAMG:  Solving for linP, Initial residual = 0.000863153, Final residual = 5.01272e-06, No Iterations 4
Adjoint continuity errors : sum local = 1.62078e-09, global = 1.77755e-10, cumulative = -8.7533e-11
GAMG:  Solving for linP, Initial residual = 0.00271674, Final residual = 2.31973e-05, No Iterations 3
GAMG:  Solving for linP, Initial residual = 0.000561047, Final residual = 2.86843e-06, No Iterations 4
GAMG:  Solving for linP, Initial residual = 0.000186593, Final residual = 1.20446e-06, No Iterations 4
Adjoint continuity errors : sum local = 3.89433e-10, global = 3.11919e-11, cumulative = -5.63411e-11
PIMPLE: iteration 3
DILUPBiCG:  Solving for linUx, Initial residual = 0.00123834, Final residual = 1.85727e-07, No Iterations 2
DILUPBiCG:  Solving for linUy, Initial residual = 0.00242327, Final residual = 2.49285e-06, No Iterations 2
DILUPBiCG:  Solving for linUz, Initial residual = 0.0021387, Final residual = 1.0149e-06, No Iterations 2
GAMG:  Solving for linP, Initial residual = 0.0425018, Final residual = 0.000397693, No Iterations 2
GAMG:  Solving for linP, Initial residual = 0.00161689, Final residual = 8.76846e-06, No Iterations 4
GAMG:  Solving for linP, Initial residual = 0.000591974, Final residual = 3.48145e-06, No Iterations 4
Adjoint continuity errors : sum local = 1.15355e-09, global = 1.7384e-10, cumulative = 1.17499e-10
GAMG:  Solving for linP, Initial residual = 0.00180899, Final residual = 6.66804e-06, No Iterations 3
GAMG:  Solving for linP, Initial residual = 0.000172461, Final residual = 1.00709e-06, No Iterations 4
GAMG:  Solving for linP, Initial residual = 6.44587e-05, Final residual = 8.31192e-07, No Iterations 3
Adjoint continuity errors : sum local = 2.75941e-10, global = 5.62487e-11, cumulative = 1.73748e-10
ExecutionTime = 11 s  ClockTime = 11 s

End

