/*---------------------------------------------------------------------------*\
| =========                 |                                                 |
| \\      /  F ield         | OpenFOAM: The Open Source CFD Toolbox           |
|  \\    /   O peration     | Version:  2.3.1                                 |
|   \\  /    A nd           | Web:      www.OpenFOAM.org                      |
|    \\/     M anipulation  |                                                 |
\*---------------------------------------------------------------------------*/
Build  : 2.3.1-262087cdf8db
Exec   : linearisedPimpleDyMFoam
Date   : Jun 06 2023
Time   : 00:24:08
Host   : "jcosson-VirtualBox"
PID    : 1960
Case   : /home/jcosson/workspace/henersj_shootingdata/calcs/moderate_deformed/primal/100_intervals_05-06-23/sweep16/interval35
nProcs : 1
sigFpe : Enabling floating point exception trapping (FOAM_SIGFPE).
fileModificationChecking : Monitoring run-time modified files using timeStampMaster
allowSystemOperations : Allowing user-supplied system call operations

// * * * * * * * * * * * * * * * * * * * * * * * * * * * * * * * * * * * * * //
Create time

Create mesh for time = 0.434

Selecting dynamicFvMesh dynamicMotionSolverFvMesh
Selecting motion solver: displacementLaplacian
Selecting motion diffusion: quadratic
Selecting motion diffusion: quadratic
Selecting motion diffusion: inverseDistance
Reading field linP

Reading field linU

starte createPhia.H

Reading/calculating face flux field linPhi

Adjungierte Interpolation durchgefuehrt

createPhia.H verlassen

setRefCell ausgefuehrt

No finite volume options present


PIMPLE: no residual control data found. Calculations will employ 3 corrector loops


Starting time loop

Time = 0.435

Reading field p

Reading field U

Read primal fluxes 

Reading primal face flux fields phi/meshPhi

Created primal fluxes 

Selecting incompressible transport model Newtonian
singlePhaseTransportModel gewaehlt 

Selecting turbulence model type RASModel
Selecting RAS turbulence model kOmegaSST
kOmegaSSTCoeffs
{
    alphaK1         0.85034;
    alphaK2         1;
    alphaOmega1     0.5;
    alphaOmega2     0.85616;
    gamma1          0.5532;
    gamma2          0.4403;
    beta1           0.075;
    beta2           0.0828;
    betaStar        0.09;
    a1              0.31;
    c1              10;
    Cmu             0.09;
    b1              1;
    F3              false;
}

autoPtr ausgefuehrt

Reading/calculating face velocity Uf

Init adjoint face velocity linUf

Courant Number mean: 0.241775 max: 0.529163
Adjoint Courant Number mean: 0.000171643 max: 0.00585929
GAMG:  Solving for cellDisplacementx, Initial residual = 0, Final residual = 0, No Iterations 0
GAMG:  Solving for cellDisplacementy, Initial residual = 0, Final residual = 0, No Iterations 0
GAMG:  Solving for cellDisplacementz, Initial residual = 0, Final residual = 0, No Iterations 0
PIMPLE: iteration 1
DILUPBiCG:  Solving for linUx, Initial residual = 0.0544734, Final residual = 0.000116414, No Iterations 1
DILUPBiCG:  Solving for linUy, Initial residual = 0.104634, Final residual = 0.000175582, No Iterations 1
DILUPBiCG:  Solving for linUz, Initial residual = 0.131326, Final residual = 0.000256497, No Iterations 1
GAMG:  Solving for linP, Initial residual = 1, Final residual = 0.00982327, No Iterations 2
GAMG:  Solving for linP, Initial residual = 0.0141503, Final residual = 8.75752e-05, No Iterations 4
GAMG:  Solving for linP, Initial residual = 0.00516244, Final residual = 3.95181e-05, No Iterations 4
Adjoint continuity errors : sum local = 1.50113e-08, global = -2.3994e-09, cumulative = -2.3994e-09
GAMG:  Solving for linP, Initial residual = 0.0346828, Final residual = 0.000192254, No Iterations 3
GAMG:  Solving for linP, Initial residual = 0.00371631, Final residual = 2.82197e-05, No Iterations 4
GAMG:  Solving for linP, Initial residual = 0.00127473, Final residual = 8.2981e-06, No Iterations 4
Adjoint continuity errors : sum local = 3.04392e-09, global = -2.77533e-10, cumulative = -2.67693e-09
PIMPLE: iteration 2
DILUPBiCG:  Solving for linUx, Initial residual = 0.00925216, Final residual = 2.54282e-05, No Iterations 1
DILUPBiCG:  Solving for linUy, Initial residual = 0.0178414, Final residual = 3.67627e-05, No Iterations 1
DILUPBiCG:  Solving for linUz, Initial residual = 0.0200431, Final residual = 4.89801e-05, No Iterations 1
GAMG:  Solving for linP, Initial residual = 0.0485878, Final residual = 0.000156313, No Iterations 3
GAMG:  Solving for linP, Initial residual = 0.00269747, Final residual = 1.62645e-05, No Iterations 4
GAMG:  Solving for linP, Initial residual = 0.000797715, Final residual = 4.62048e-06, No Iterations 4
Adjoint continuity errors : sum local = 1.72718e-09, global = -4.9376e-10, cumulative = -3.17069e-09
GAMG:  Solving for linP, Initial residual = 0.0031429, Final residual = 2.11124e-05, No Iterations 3
GAMG:  Solving for linP, Initial residual = 0.000507479, Final residual = 4.89e-06, No Iterations 4
GAMG:  Solving for linP, Initial residual = 0.000171835, Final residual = 6.56486e-07, No Iterations 4
Adjoint continuity errors : sum local = 2.45368e-10, global = 6.85981e-11, cumulative = -3.10209e-09
PIMPLE: iteration 3
DILUPBiCG:  Solving for linUx, Initial residual = 0.00143984, Final residual = 7.22077e-08, No Iterations 2
DILUPBiCG:  Solving for linUy, Initial residual = 0.00315892, Final residual = 9.94612e-08, No Iterations 2
DILUPBiCG:  Solving for linUz, Initial residual = 0.00279238, Final residual = 1.00591e-07, No Iterations 2
GAMG:  Solving for linP, Initial residual = 0.0433507, Final residual = 0.000371258, No Iterations 2
GAMG:  Solving for linP, Initial residual = 0.00144879, Final residual = 1.03933e-05, No Iterations 4
GAMG:  Solving for linP, Initial residual = 0.000507015, Final residual = 3.43965e-06, No Iterations 4
Adjoint continuity errors : sum local = 1.31644e-09, global = 6.67137e-11, cumulative = -3.03538e-09
GAMG:  Solving for linP, Initial residual = 0.00216253, Final residual = 7.04121e-06, No Iterations 3
GAMG:  Solving for linP, Initial residual = 0.000173939, Final residual = 7.4885e-07, No Iterations 4
GAMG:  Solving for linP, Initial residual = 6.20776e-05, Final residual = 5.47921e-07, No Iterations 3
Adjoint continuity errors : sum local = 2.1025e-10, global = -1.27571e-11, cumulative = -3.04814e-09
ExecutionTime = 12.37 s  ClockTime = 13 s

End

