/*---------------------------------------------------------------------------*\
| =========                 |                                                 |
| \\      /  F ield         | OpenFOAM: The Open Source CFD Toolbox           |
|  \\    /   O peration     | Version:  2.3.1                                 |
|   \\  /    A nd           | Web:      www.OpenFOAM.org                      |
|    \\/     M anipulation  |                                                 |
\*---------------------------------------------------------------------------*/
Build  : 2.3.1-262087cdf8db
Exec   : linearisedPimpleDyMFoam
Date   : Jun 05 2023
Time   : 19:21:21
Host   : "jcosson-VirtualBox"
PID    : 3714
Case   : /home/jcosson/workspace/henersj_shootingdata/calcs/moderate_deformed/primal/56_intervals_05-06-23/sweep38/interval52
nProcs : 1
sigFpe : Enabling floating point exception trapping (FOAM_SIGFPE).
fileModificationChecking : Monitoring run-time modified files using timeStampMaster
allowSystemOperations : Allowing user-supplied system call operations

// * * * * * * * * * * * * * * * * * * * * * * * * * * * * * * * * * * * * * //
Create time

Create mesh for time = 0.491

Selecting dynamicFvMesh dynamicMotionSolverFvMesh
Selecting motion solver: displacementLaplacian
Selecting motion diffusion: quadratic
Selecting motion diffusion: quadratic
Selecting motion diffusion: inverseDistance
Reading field linP

Reading field linU

starte createPhia.H

Reading/calculating face flux field linPhi

Adjungierte Interpolation durchgefuehrt

createPhia.H verlassen

setRefCell ausgefuehrt

No finite volume options present


PIMPLE: no residual control data found. Calculations will employ 3 corrector loops


Starting time loop

Time = 0.492

Reading field p

Reading field U

Read primal fluxes 

Reading primal face flux fields phi/meshPhi

Created primal fluxes 

Selecting incompressible transport model Newtonian
singlePhaseTransportModel gewaehlt 

Selecting turbulence model type RASModel
Selecting RAS turbulence model kOmegaSST
bounding k, min: 0 max: 0.000564263 average: 0.000147744
kOmegaSSTCoeffs
{
    alphaK1         0.85034;
    alphaK2         1;
    alphaOmega1     0.5;
    alphaOmega2     0.85616;
    gamma1          0.5532;
    gamma2          0.4403;
    beta1           0.075;
    beta2           0.0828;
    betaStar        0.09;
    a1              0.31;
    c1              10;
    Cmu             0.09;
    b1              1;
    F3              false;
}

autoPtr ausgefuehrt

Reading/calculating face velocity Uf

Init adjoint face velocity linUf

Courant Number mean: 0.109698 max: 0.238564
Adjoint Courant Number mean: 0.000253876 max: 0.00295982
GAMG:  Solving for cellDisplacementx, Initial residual = 0, Final residual = 0, No Iterations 0
GAMG:  Solving for cellDisplacementy, Initial residual = 0, Final residual = 0, No Iterations 0
GAMG:  Solving for cellDisplacementz, Initial residual = 0, Final residual = 0, No Iterations 0
PIMPLE: iteration 1
DILUPBiCG:  Solving for linUx, Initial residual = 0.0125148, Final residual = 3.64479e-05, No Iterations 1
DILUPBiCG:  Solving for linUy, Initial residual = 0.0241481, Final residual = 5.09361e-05, No Iterations 1
DILUPBiCG:  Solving for linUz, Initial residual = 0.0485942, Final residual = 8.92818e-05, No Iterations 1
GAMG:  Solving for linP, Initial residual = 1, Final residual = 0.00564093, No Iterations 3
GAMG:  Solving for linP, Initial residual = 0.0349562, Final residual = 0.000132923, No Iterations 5
GAMG:  Solving for linP, Initial residual = 0.0125521, Final residual = 4.29333e-05, No Iterations 5
Adjoint continuity errors : sum local = 3.73042e-09, global = -8.04457e-11, cumulative = -8.04457e-11
GAMG:  Solving for linP, Initial residual = 0.0229142, Final residual = 0.000119361, No Iterations 4
GAMG:  Solving for linP, Initial residual = 0.00615615, Final residual = 2.8977e-05, No Iterations 4
GAMG:  Solving for linP, Initial residual = 0.00225901, Final residual = 1.30357e-05, No Iterations 4
Adjoint continuity errors : sum local = 1.1064e-09, global = -7.32951e-12, cumulative = -8.77752e-11
PIMPLE: iteration 2
DILUPBiCG:  Solving for linUx, Initial residual = 0.00136979, Final residual = 1.56347e-05, No Iterations 1
DILUPBiCG:  Solving for linUy, Initial residual = 0.00319073, Final residual = 1.12186e-05, No Iterations 1
DILUPBiCG:  Solving for linUz, Initial residual = 0.00471498, Final residual = 9.32792e-06, No Iterations 1
GAMG:  Solving for linP, Initial residual = 0.0287104, Final residual = 0.000184603, No Iterations 3
GAMG:  Solving for linP, Initial residual = 0.0044269, Final residual = 4.30733e-05, No Iterations 3
GAMG:  Solving for linP, Initial residual = 0.00138481, Final residual = 8.05203e-06, No Iterations 4
Adjoint continuity errors : sum local = 6.93628e-10, global = -7.84338e-11, cumulative = -1.66209e-10
GAMG:  Solving for linP, Initial residual = 0.00148398, Final residual = 9.85039e-06, No Iterations 4
GAMG:  Solving for linP, Initial residual = 0.000592015, Final residual = 4.93072e-06, No Iterations 4
GAMG:  Solving for linP, Initial residual = 0.000215368, Final residual = 1.49342e-06, No Iterations 4
Adjoint continuity errors : sum local = 1.28536e-10, global = 7.75933e-13, cumulative = -1.65433e-10
PIMPLE: iteration 3
DILUPBiCG:  Solving for linUx, Initial residual = 0.000131713, Final residual = 8.19623e-07, No Iterations 1
DILUPBiCG:  Solving for linUy, Initial residual = 0.000246935, Final residual = 1.90158e-06, No Iterations 1
DILUPBiCG:  Solving for linUz, Initial residual = 0.000306743, Final residual = 2.48189e-06, No Iterations 1
GAMG:  Solving for linP, Initial residual = 0.0357138, Final residual = 9.69912e-05, No Iterations 3
GAMG:  Solving for linP, Initial residual = 0.00263654, Final residual = 1.09529e-05, No Iterations 4
GAMG:  Solving for linP, Initial residual = 0.00095739, Final residual = 9.43341e-06, No Iterations 3
Adjoint continuity errors : sum local = 8.48557e-10, global = -5.58874e-11, cumulative = -2.21321e-10
GAMG:  Solving for linP, Initial residual = 0.00106064, Final residual = 7.27364e-06, No Iterations 3
GAMG:  Solving for linP, Initial residual = 0.000239705, Final residual = 1.62829e-06, No Iterations 4
GAMG:  Solving for linP, Initial residual = 9.85572e-05, Final residual = 7.98425e-07, No Iterations 4
Adjoint continuity errors : sum local = 7.18747e-11, global = -4.37494e-12, cumulative = -2.25695e-10
ExecutionTime = 12.53 s  ClockTime = 13 s

Time = 0.493

Reading field p

Reading field U

Read primal fluxes 

Reading primal face flux fields phi/meshPhi

Created primal fluxes 

Selecting incompressible transport model Newtonian
singlePhaseTransportModel gewaehlt 

Selecting turbulence model type RASModel
Selecting RAS turbulence model kOmegaSST
bounding k, min: 0 max: 0.000548256 average: 0.000146996
kOmegaSSTCoeffs
{
    alphaK1         0.85034;
    alphaK2         1;
    alphaOmega1     0.5;
    alphaOmega2     0.85616;
    gamma1          0.5532;
    gamma2          0.4403;
    beta1           0.075;
    beta2           0.0828;
    betaStar        0.09;
    a1              0.31;
    c1              10;
    Cmu             0.09;
    b1              1;
    F3              false;
}

autoPtr ausgefuehrt

Reading/calculating face velocity Uf

Init adjoint face velocity linUf

Courant Number mean: 0.107121 max: 0.233099
Adjoint Courant Number mean: 0.000248395 max: 0.00291803
GAMG:  Solving for cellDisplacementx, Initial residual = 0, Final residual = 0, No Iterations 0
GAMG:  Solving for cellDisplacementy, Initial residual = 0, Final residual = 0, No Iterations 0
GAMG:  Solving for cellDisplacementz, Initial residual = 0, Final residual = 0, No Iterations 0
PIMPLE: iteration 1
DILUPBiCG:  Solving for linUx, Initial residual = 0.0110946, Final residual = 2.48641e-05, No Iterations 1
DILUPBiCG:  Solving for linUy, Initial residual = 0.0267324, Final residual = 4.04342e-05, No Iterations 1
DILUPBiCG:  Solving for linUz, Initial residual = 0.0376056, Final residual = 5.56954e-05, No Iterations 1
GAMG:  Solving for linP, Initial residual = 0.27907, Final residual = 0.00142526, No Iterations 3
GAMG:  Solving for linP, Initial residual = 0.020646, Final residual = 0.000192516, No Iterations 4
GAMG:  Solving for linP, Initial residual = 0.00568313, Final residual = 3.67101e-05, No Iterations 4
Adjoint continuity errors : sum local = 3.77601e-09, global = 7.0916e-10, cumulative = 4.83465e-10
GAMG:  Solving for linP, Initial residual = 0.00861791, Final residual = 5.00454e-05, No Iterations 4
GAMG:  Solving for linP, Initial residual = 0.00271206, Final residual = 2.51442e-05, No Iterations 4
GAMG:  Solving for linP, Initial residual = 0.00086891, Final residual = 6.65067e-06, No Iterations 4
Adjoint continuity errors : sum local = 6.80717e-10, global = 3.89037e-11, cumulative = 5.22368e-10
PIMPLE: iteration 2
DILUPBiCG:  Solving for linUx, Initial residual = 0.00092473, Final residual = 4.68923e-06, No Iterations 1
DILUPBiCG:  Solving for linUy, Initial residual = 0.00174216, Final residual = 3.99794e-05, No Iterations 1
DILUPBiCG:  Solving for linUz, Initial residual = 0.00206328, Final residual = 5.21255e-06, No Iterations 1
GAMG:  Solving for linP, Initial residual = 0.0135322, Final residual = 5.46704e-05, No Iterations 3
GAMG:  Solving for linP, Initial residual = 0.00129479, Final residual = 9.23752e-06, No Iterations 4
GAMG:  Solving for linP, Initial residual = 0.000467329, Final residual = 2.18839e-06, No Iterations 4
Adjoint continuity errors : sum local = 2.26798e-10, global = -7.86326e-11, cumulative = 4.43736e-10
GAMG:  Solving for linP, Initial residual = 0.000496625, Final residual = 4.89771e-06, No Iterations 3
GAMG:  Solving for linP, Initial residual = 0.000149785, Final residual = 1.01611e-06, No Iterations 4
GAMG:  Solving for linP, Initial residual = 6.30502e-05, Final residual = 4.30475e-07, No Iterations 4
Adjoint continuity errors : sum local = 4.46104e-11, global = 7.13976e-13, cumulative = 4.4445e-10
PIMPLE: iteration 3
DILUPBiCG:  Solving for linUx, Initial residual = 0.000110675, Final residual = 7.1527e-07, No Iterations 1
DILUPBiCG:  Solving for linUy, Initial residual = 0.00019659, Final residual = 1.44388e-06, No Iterations 1
DILUPBiCG:  Solving for linUz, Initial residual = 0.000239155, Final residual = 1.39859e-06, No Iterations 1
GAMG:  Solving for linP, Initial residual = 0.043538, Final residual = 0.00011493, No Iterations 3
GAMG:  Solving for linP, Initial residual = 0.00239109, Final residual = 1.144e-05, No Iterations 4
GAMG:  Solving for linP, Initial residual = 0.000879649, Final residual = 5.62588e-06, No Iterations 4
Adjoint continuity errors : sum local = 5.99099e-10, global = 5.82348e-11, cumulative = 5.02685e-10
GAMG:  Solving for linP, Initial residual = 0.00109872, Final residual = 6.58557e-06, No Iterations 3
GAMG:  Solving for linP, Initial residual = 0.000227961, Final residual = 7.72903e-07, No Iterations 5
GAMG:  Solving for linP, Initial residual = 9.6752e-05, Final residual = 8.69894e-07, No Iterations 3
Adjoint continuity errors : sum local = 9.27216e-11, global = 6.9052e-13, cumulative = 5.03375e-10
ExecutionTime = 22.67 s  ClockTime = 23 s

End

