/*---------------------------------------------------------------------------*\
| =========                 |                                                 |
| \\      /  F ield         | OpenFOAM: The Open Source CFD Toolbox           |
|  \\    /   O peration     | Version:  2.3.1                                 |
|   \\  /    A nd           | Web:      www.OpenFOAM.org                      |
|    \\/     M anipulation  |                                                 |
\*---------------------------------------------------------------------------*/
Build  : 2.3.1-262087cdf8db
Exec   : linearisedPimpleDyMFoam
Date   : Jun 05 2023
Time   : 18:48:45
Host   : "jcosson-VirtualBox"
PID    : 24734
Case   : /home/jcosson/workspace/henersj_shootingdata/calcs/moderate_deformed/primal/56_intervals_05-06-23/sweep21/interval46
nProcs : 1
sigFpe : Enabling floating point exception trapping (FOAM_SIGFPE).
fileModificationChecking : Monitoring run-time modified files using timeStampMaster
allowSystemOperations : Allowing user-supplied system call operations

// * * * * * * * * * * * * * * * * * * * * * * * * * * * * * * * * * * * * * //
Create time

Create mesh for time = 0.48

Selecting dynamicFvMesh dynamicMotionSolverFvMesh
Selecting motion solver: displacementLaplacian
Selecting motion diffusion: quadratic
Selecting motion diffusion: quadratic
Selecting motion diffusion: inverseDistance
Reading field linP

Reading field linU

starte createPhia.H

Reading/calculating face flux field linPhi

Adjungierte Interpolation durchgefuehrt

createPhia.H verlassen

setRefCell ausgefuehrt

No finite volume options present


PIMPLE: no residual control data found. Calculations will employ 3 corrector loops


Starting time loop

Time = 0.481

Reading field p

Reading field U

Read primal fluxes 

Reading primal face flux fields phi/meshPhi

Created primal fluxes 

Selecting incompressible transport model Newtonian
singlePhaseTransportModel gewaehlt 

Selecting turbulence model type RASModel
Selecting RAS turbulence model kOmegaSST
bounding k, min: 0 max: 0.000732647 average: 0.00016096
kOmegaSSTCoeffs
{
    alphaK1         0.85034;
    alphaK2         1;
    alphaOmega1     0.5;
    alphaOmega2     0.85616;
    gamma1          0.5532;
    gamma2          0.4403;
    beta1           0.075;
    beta2           0.0828;
    betaStar        0.09;
    a1              0.31;
    c1              10;
    Cmu             0.09;
    b1              1;
    F3              false;
}

autoPtr ausgefuehrt

Reading/calculating face velocity Uf

Init adjoint face velocity linUf

Courant Number mean: 0.155896 max: 0.347931
Adjoint Courant Number mean: 0.000303893 max: 0.00362623
GAMG:  Solving for cellDisplacementx, Initial residual = 0, Final residual = 0, No Iterations 0
GAMG:  Solving for cellDisplacementy, Initial residual = 0, Final residual = 0, No Iterations 0
GAMG:  Solving for cellDisplacementz, Initial residual = 0, Final residual = 0, No Iterations 0
PIMPLE: iteration 1
DILUPBiCG:  Solving for linUx, Initial residual = 0.0243083, Final residual = 7.43197e-05, No Iterations 1
DILUPBiCG:  Solving for linUy, Initial residual = 0.0461237, Final residual = 0.000101976, No Iterations 1
DILUPBiCG:  Solving for linUz, Initial residual = 0.0703554, Final residual = 0.00015832, No Iterations 1
GAMG:  Solving for linP, Initial residual = 1, Final residual = 0.00908085, No Iterations 2
GAMG:  Solving for linP, Initial residual = 0.0145726, Final residual = 0.000100428, No Iterations 4
GAMG:  Solving for linP, Initial residual = 0.00490165, Final residual = 3.94743e-05, No Iterations 4
Adjoint continuity errors : sum local = 8.62232e-09, global = -1.81577e-09, cumulative = -1.81577e-09
GAMG:  Solving for linP, Initial residual = 0.0250013, Final residual = 0.000201301, No Iterations 3
GAMG:  Solving for linP, Initial residual = 0.00320259, Final residual = 1.13307e-05, No Iterations 5
GAMG:  Solving for linP, Initial residual = 0.00110982, Final residual = 7.82438e-06, No Iterations 4
Adjoint continuity errors : sum local = 1.65501e-09, global = -1.35117e-10, cumulative = -1.95089e-09
PIMPLE: iteration 2
DILUPBiCG:  Solving for linUx, Initial residual = 0.00212435, Final residual = 2.85274e-05, No Iterations 1
DILUPBiCG:  Solving for linUy, Initial residual = 0.00414875, Final residual = 3.83888e-05, No Iterations 1
DILUPBiCG:  Solving for linUz, Initial residual = 0.00530153, Final residual = 1.30203e-05, No Iterations 1
GAMG:  Solving for linP, Initial residual = 0.030289, Final residual = 8.34823e-05, No Iterations 3
GAMG:  Solving for linP, Initial residual = 0.00176079, Final residual = 6.31178e-06, No Iterations 4
GAMG:  Solving for linP, Initial residual = 0.000504817, Final residual = 2.16488e-06, No Iterations 4
Adjoint continuity errors : sum local = 4.71673e-10, global = 3.11983e-11, cumulative = -1.91969e-09
GAMG:  Solving for linP, Initial residual = 0.00127397, Final residual = 8.95302e-06, No Iterations 3
GAMG:  Solving for linP, Initial residual = 0.000243053, Final residual = 1.00619e-06, No Iterations 4
GAMG:  Solving for linP, Initial residual = 7.84679e-05, Final residual = 9.16095e-07, No Iterations 3
Adjoint continuity errors : sum local = 1.99482e-10, global = 1.54823e-11, cumulative = -1.90421e-09
PIMPLE: iteration 3
DILUPBiCG:  Solving for linUx, Initial residual = 0.000277215, Final residual = 2.09893e-06, No Iterations 1
DILUPBiCG:  Solving for linUy, Initial residual = 0.000531068, Final residual = 6.53247e-06, No Iterations 1
DILUPBiCG:  Solving for linUz, Initial residual = 0.000617356, Final residual = 2.85779e-06, No Iterations 1
GAMG:  Solving for linP, Initial residual = 0.0385105, Final residual = 0.000299595, No Iterations 2
GAMG:  Solving for linP, Initial residual = 0.00134936, Final residual = 5.50551e-06, No Iterations 4
GAMG:  Solving for linP, Initial residual = 0.000471738, Final residual = 2.32505e-06, No Iterations 4
Adjoint continuity errors : sum local = 5.24748e-10, global = -9.96478e-11, cumulative = -2.00386e-09
GAMG:  Solving for linP, Initial residual = 0.00131859, Final residual = 5.60751e-06, No Iterations 3
GAMG:  Solving for linP, Initial residual = 0.00013923, Final residual = 8.93077e-07, No Iterations 4
GAMG:  Solving for linP, Initial residual = 5.55231e-05, Final residual = 9.46543e-07, No Iterations 3
Adjoint continuity errors : sum local = 2.14018e-10, global = 5.49072e-11, cumulative = -1.94895e-09
ExecutionTime = 11.62 s  ClockTime = 12 s

Time = 0.482

Reading field p

Reading field U

Read primal fluxes 

Reading primal face flux fields phi/meshPhi

Created primal fluxes 

Selecting incompressible transport model Newtonian
singlePhaseTransportModel gewaehlt 

Selecting turbulence model type RASModel
Selecting RAS turbulence model kOmegaSST
bounding k, min: 0 max: 0.000721172 average: 0.000159871
kOmegaSSTCoeffs
{
    alphaK1         0.85034;
    alphaK2         1;
    alphaOmega1     0.5;
    alphaOmega2     0.85616;
    gamma1          0.5532;
    gamma2          0.4403;
    beta1           0.075;
    beta2           0.0828;
    betaStar        0.09;
    a1              0.31;
    c1              10;
    Cmu             0.09;
    b1              1;
    F3              false;
}

autoPtr ausgefuehrt

Reading/calculating face velocity Uf

Init adjoint face velocity linUf

Courant Number mean: 0.150684 max: 0.336927
Adjoint Courant Number mean: 0.000299986 max: 0.00347293
GAMG:  Solving for cellDisplacementx, Initial residual = 0, Final residual = 0, No Iterations 0
GAMG:  Solving for cellDisplacementy, Initial residual = 0, Final residual = 0, No Iterations 0
GAMG:  Solving for cellDisplacementz, Initial residual = 0, Final residual = 0, No Iterations 0
PIMPLE: iteration 1
DILUPBiCG:  Solving for linUx, Initial residual = 0.0165084, Final residual = 4.71604e-05, No Iterations 1
DILUPBiCG:  Solving for linUy, Initial residual = 0.0334585, Final residual = 7.84035e-05, No Iterations 1
DILUPBiCG:  Solving for linUz, Initial residual = 0.0423872, Final residual = 6.68197e-05, No Iterations 1
GAMG:  Solving for linP, Initial residual = 0.267317, Final residual = 0.00203808, No Iterations 2
GAMG:  Solving for linP, Initial residual = 0.00595429, Final residual = 2.79619e-05, No Iterations 4
GAMG:  Solving for linP, Initial residual = 0.00181932, Final residual = 1.67244e-05, No Iterations 3
Adjoint continuity errors : sum local = 5.31556e-09, global = -2.63138e-12, cumulative = -1.95158e-09
GAMG:  Solving for linP, Initial residual = 0.00641015, Final residual = 3.66008e-05, No Iterations 3
GAMG:  Solving for linP, Initial residual = 0.000781319, Final residual = 5.23308e-06, No Iterations 4
GAMG:  Solving for linP, Initial residual = 0.000237467, Final residual = 2.2086e-06, No Iterations 3
Adjoint continuity errors : sum local = 6.97203e-10, global = 6.63591e-11, cumulative = -1.88522e-09
PIMPLE: iteration 2
DILUPBiCG:  Solving for linUx, Initial residual = 0.00185537, Final residual = 1.32854e-05, No Iterations 1
DILUPBiCG:  Solving for linUy, Initial residual = 0.00356872, Final residual = 5.41973e-05, No Iterations 1
DILUPBiCG:  Solving for linUz, Initial residual = 0.0042285, Final residual = 1.01125e-05, No Iterations 1
GAMG:  Solving for linP, Initial residual = 0.014117, Final residual = 5.7797e-05, No Iterations 3
GAMG:  Solving for linP, Initial residual = 0.000723132, Final residual = 3.28785e-06, No Iterations 4
GAMG:  Solving for linP, Initial residual = 0.000213771, Final residual = 1.03101e-06, No Iterations 4
Adjoint continuity errors : sum local = 3.29243e-10, global = 2.68636e-11, cumulative = -1.85836e-09
GAMG:  Solving for linP, Initial residual = 0.00054469, Final residual = 3.89655e-06, No Iterations 3
GAMG:  Solving for linP, Initial residual = 9.72397e-05, Final residual = 7.31609e-07, No Iterations 4
GAMG:  Solving for linP, Initial residual = 3.28295e-05, Final residual = 9.11864e-07, No Iterations 2
Adjoint continuity errors : sum local = 2.91176e-10, global = -7.56997e-12, cumulative = -1.86593e-09
PIMPLE: iteration 3
DILUPBiCG:  Solving for linUx, Initial residual = 0.00024928, Final residual = 1.74434e-06, No Iterations 1
DILUPBiCG:  Solving for linUy, Initial residual = 0.000477961, Final residual = 4.23308e-06, No Iterations 1
DILUPBiCG:  Solving for linUz, Initial residual = 0.000560382, Final residual = 2.00601e-06, No Iterations 1
GAMG:  Solving for linP, Initial residual = 0.0425259, Final residual = 0.000419879, No Iterations 2
GAMG:  Solving for linP, Initial residual = 0.00120902, Final residual = 6.45902e-06, No Iterations 4
GAMG:  Solving for linP, Initial residual = 0.000394204, Final residual = 2.44144e-06, No Iterations 4
Adjoint continuity errors : sum local = 7.99997e-10, global = -1.234e-10, cumulative = -1.98933e-09
GAMG:  Solving for linP, Initial residual = 0.00118175, Final residual = 5.29441e-06, No Iterations 3
GAMG:  Solving for linP, Initial residual = 0.000111701, Final residual = 7.06032e-07, No Iterations 4
GAMG:  Solving for linP, Initial residual = 4.15864e-05, Final residual = 8.26657e-07, No Iterations 3
Adjoint continuity errors : sum local = 2.71286e-10, global = 1.75383e-11, cumulative = -1.97179e-09
ExecutionTime = 20.69 s  ClockTime = 21 s

End

