/*---------------------------------------------------------------------------*\
| =========                 |                                                 |
| \\      /  F ield         | OpenFOAM: The Open Source CFD Toolbox           |
|  \\    /   O peration     | Version:  2.3.1                                 |
|   \\  /    A nd           | Web:      www.OpenFOAM.org                      |
|    \\/     M anipulation  |                                                 |
\*---------------------------------------------------------------------------*/
Build  : 2.3.1-262087cdf8db
Exec   : linearisedPimpleDyMFoam
Date   : Jun 06 2023
Time   : 00:14:04
Host   : "jcosson-VirtualBox"
PID    : 28882
Case   : /home/jcosson/workspace/henersj_shootingdata/calcs/moderate_deformed/primal/100_intervals_05-06-23/sweep13/interval90
nProcs : 1
sigFpe : Enabling floating point exception trapping (FOAM_SIGFPE).
fileModificationChecking : Monitoring run-time modified files using timeStampMaster
allowSystemOperations : Allowing user-supplied system call operations

// * * * * * * * * * * * * * * * * * * * * * * * * * * * * * * * * * * * * * //
Create time

Create mesh for time = 0.489

Selecting dynamicFvMesh dynamicMotionSolverFvMesh
Selecting motion solver: displacementLaplacian
Selecting motion diffusion: quadratic
Selecting motion diffusion: quadratic
Selecting motion diffusion: inverseDistance
Reading field linP

Reading field linU

starte createPhia.H

Reading/calculating face flux field linPhi

Adjungierte Interpolation durchgefuehrt

createPhia.H verlassen

setRefCell ausgefuehrt

No finite volume options present


PIMPLE: no residual control data found. Calculations will employ 3 corrector loops


Starting time loop

Time = 0.49

Reading field p

Reading field U

Read primal fluxes 

Reading primal face flux fields phi/meshPhi

Created primal fluxes 

Selecting incompressible transport model Newtonian
singlePhaseTransportModel gewaehlt 

Selecting turbulence model type RASModel
Selecting RAS turbulence model kOmegaSST
bounding k, min: 0 max: 0.000731996 average: 0.000159429
kOmegaSSTCoeffs
{
    alphaK1         0.85034;
    alphaK2         1;
    alphaOmega1     0.5;
    alphaOmega2     0.85616;
    gamma1          0.5532;
    gamma2          0.4403;
    beta1           0.075;
    beta2           0.0828;
    betaStar        0.09;
    a1              0.31;
    c1              10;
    Cmu             0.09;
    b1              1;
    F3              false;
}

autoPtr ausgefuehrt

Reading/calculating face velocity Uf

Init adjoint face velocity linUf

Courant Number mean: 0.115163 max: 0.256236
Adjoint Courant Number mean: 0.000164583 max: 0.00580431
GAMG:  Solving for cellDisplacementx, Initial residual = 0, Final residual = 0, No Iterations 0
GAMG:  Solving for cellDisplacementy, Initial residual = 0, Final residual = 0, No Iterations 0
GAMG:  Solving for cellDisplacementz, Initial residual = 0, Final residual = 0, No Iterations 0
PIMPLE: iteration 1
DILUPBiCG:  Solving for linUx, Initial residual = 0.0255674, Final residual = 4.42455e-05, No Iterations 1
DILUPBiCG:  Solving for linUy, Initial residual = 0.0444731, Final residual = 5.37218e-05, No Iterations 1
DILUPBiCG:  Solving for linUz, Initial residual = 0.0537133, Final residual = 8.38146e-05, No Iterations 1
GAMG:  Solving for linP, Initial residual = 1, Final residual = 0.00601687, No Iterations 3
GAMG:  Solving for linP, Initial residual = 0.0376076, Final residual = 0.00013059, No Iterations 5
GAMG:  Solving for linP, Initial residual = 0.0137463, Final residual = 0.000125661, No Iterations 3
Adjoint continuity errors : sum local = 1.78926e-08, global = 2.37943e-10, cumulative = 2.37943e-10
GAMG:  Solving for linP, Initial residual = 0.0187338, Final residual = 0.000141288, No Iterations 4
GAMG:  Solving for linP, Initial residual = 0.00628539, Final residual = 4.92898e-05, No Iterations 4
GAMG:  Solving for linP, Initial residual = 0.00218888, Final residual = 1.72052e-05, No Iterations 4
Adjoint continuity errors : sum local = 2.42198e-09, global = -1.92314e-10, cumulative = 4.56293e-11
PIMPLE: iteration 2
DILUPBiCG:  Solving for linUx, Initial residual = 0.00465133, Final residual = 1.97738e-05, No Iterations 1
DILUPBiCG:  Solving for linUy, Initial residual = 0.01015, Final residual = 2.07421e-05, No Iterations 1
DILUPBiCG:  Solving for linUz, Initial residual = 0.0150906, Final residual = 5.31985e-05, No Iterations 1
GAMG:  Solving for linP, Initial residual = 0.0273604, Final residual = 0.000104364, No Iterations 4
GAMG:  Solving for linP, Initial residual = 0.00542903, Final residual = 3.25153e-05, No Iterations 4
GAMG:  Solving for linP, Initial residual = 0.00173953, Final residual = 1.35378e-05, No Iterations 4
Adjoint continuity errors : sum local = 1.89722e-09, global = -1.70431e-10, cumulative = -1.24802e-10
GAMG:  Solving for linP, Initial residual = 0.00183653, Final residual = 1.71301e-05, No Iterations 4
GAMG:  Solving for linP, Initial residual = 0.000800202, Final residual = 3.13837e-06, No Iterations 4
GAMG:  Solving for linP, Initial residual = 0.000267977, Final residual = 1.949e-06, No Iterations 4
Adjoint continuity errors : sum local = 2.73312e-10, global = 1.48029e-11, cumulative = -1.09999e-10
PIMPLE: iteration 3
DILUPBiCG:  Solving for linUx, Initial residual = 0.000437034, Final residual = 2.30618e-06, No Iterations 1
DILUPBiCG:  Solving for linUy, Initial residual = 0.000657203, Final residual = 4.69205e-06, No Iterations 1
DILUPBiCG:  Solving for linUz, Initial residual = 0.000672647, Final residual = 1.5298e-06, No Iterations 1
GAMG:  Solving for linP, Initial residual = 0.0420075, Final residual = 0.000141517, No Iterations 3
GAMG:  Solving for linP, Initial residual = 0.00287323, Final residual = 1.15564e-05, No Iterations 4
GAMG:  Solving for linP, Initial residual = 0.00118336, Final residual = 5.75106e-06, No Iterations 4
Adjoint continuity errors : sum local = 8.27532e-10, global = -1.23604e-10, cumulative = -2.33603e-10
GAMG:  Solving for linP, Initial residual = 0.000976684, Final residual = 7.71412e-06, No Iterations 3
GAMG:  Solving for linP, Initial residual = 0.000239511, Final residual = 1.32626e-06, No Iterations 4
GAMG:  Solving for linP, Initial residual = 9.89566e-05, Final residual = 5.21852e-07, No Iterations 4
Adjoint continuity errors : sum local = 7.51166e-11, global = -1.15222e-11, cumulative = -2.45125e-10
ExecutionTime = 8.81 s  ClockTime = 9 s

End

