/*---------------------------------------------------------------------------*\
| =========                 |                                                 |
| \\      /  F ield         | OpenFOAM: The Open Source CFD Toolbox           |
|  \\    /   O peration     | Version:  2.3.1                                 |
|   \\  /    A nd           | Web:      www.OpenFOAM.org                      |
|    \\/     M anipulation  |                                                 |
\*---------------------------------------------------------------------------*/
Build  : 2.3.1-262087cdf8db
Exec   : pimpleDyMFoam
Date   : Jun 06 2023
Time   : 01:09:44
Host   : "jcosson-VirtualBox"
PID    : 24046
Case   : /home/jcosson/workspace/henersj_shootingdata/calcs/moderate_deformed/primal/100_intervals_05-06-23/sweep30/interval88
nProcs : 1
sigFpe : Enabling floating point exception trapping (FOAM_SIGFPE).
fileModificationChecking : Monitoring run-time modified files using timeStampMaster
allowSystemOperations : Allowing user-supplied system call operations

// * * * * * * * * * * * * * * * * * * * * * * * * * * * * * * * * * * * * * //
Create time

Create mesh for time = 0.487

Selecting dynamicFvMesh dynamicMotionSolverFvMesh
Selecting motion solver: displacementLaplacian
Selecting motion diffusion: quadratic
Selecting motion diffusion: quadratic
Selecting motion diffusion: inverseDistance

PIMPLE: no residual control data found. Calculations will employ 3 corrector loops

Reading field p

Reading field U

Reading/calculating face flux field phi

Selecting incompressible transport model Newtonian
Selecting turbulence model type RASModel
Selecting RAS turbulence model kOmegaSST
bounding k, min: 0 max: 0.000675679 average: 0.000157907
kOmegaSSTCoeffs
{
    alphaK1         0.85034;
    alphaK2         1;
    alphaOmega1     0.5;
    alphaOmega2     0.85616;
    gamma1          0.5532;
    gamma2          0.4403;
    beta1           0.075;
    beta2           0.0828;
    betaStar        0.09;
    a1              0.31;
    c1              10;
    Cmu             0.09;
    b1              1;
    F3              false;
}

Reading/calculating face velocity Uf

No finite volume options present

Courant Number mean: 0.127145 max: 0.288794

Starting time loop

Courant Number mean: 0.127145 max: 0.288794
Time = 0.488

GAMG:  Solving for cellDisplacementx, Initial residual = 0, Final residual = 0, No Iterations 0
GAMG:  Solving for cellDisplacementy, Initial residual = 0, Final residual = 0, No Iterations 0
GAMG:  Solving for cellDisplacementz, Initial residual = 0, Final residual = 0, No Iterations 0
PIMPLE: iteration 1
DILUPBiCG:  Solving for Ux, Initial residual = 0.0593577, Final residual = 0.000220362, No Iterations 1
DILUPBiCG:  Solving for Uy, Initial residual = 0.0116143, Final residual = 2.35729e-05, No Iterations 1
DILUPBiCG:  Solving for Uz, Initial residual = 0.0168155, Final residual = 1.53863e-05, No Iterations 1
GAMG:  Solving for p, Initial residual = 0.118288, Final residual = 0.000888147, No Iterations 4
GAMG:  Solving for p, Initial residual = 0.0162495, Final residual = 0.000145672, No Iterations 18
GAMG:  Solving for p, Initial residual = 0.0077321, Final residual = 7.15254e-05, No Iterations 4
time step continuity errors : sum local = 8.70524e-07, global = 3.08818e-07, cumulative = 3.08818e-07
GAMG:  Solving for p, Initial residual = 0.0529223, Final residual = 0.000368256, No Iterations 4
GAMG:  Solving for p, Initial residual = 0.00803946, Final residual = 7.32956e-05, No Iterations 16
GAMG:  Solving for p, Initial residual = 0.00389216, Final residual = 3.57209e-05, No Iterations 4
time step continuity errors : sum local = 4.37273e-07, global = 1.43932e-07, cumulative = 4.52751e-07
PIMPLE: iteration 2
DILUPBiCG:  Solving for Ux, Initial residual = 0.0154882, Final residual = 8.90361e-05, No Iterations 1
DILUPBiCG:  Solving for Uy, Initial residual = 0.0031465, Final residual = 6.39237e-06, No Iterations 1
DILUPBiCG:  Solving for Uz, Initial residual = 0.00281092, Final residual = 8.56739e-06, No Iterations 1
GAMG:  Solving for p, Initial residual = 0.0519586, Final residual = 0.000484471, No Iterations 4
GAMG:  Solving for p, Initial residual = 0.0102356, Final residual = 8.73559e-05, No Iterations 16
GAMG:  Solving for p, Initial residual = 0.00467446, Final residual = 4.42743e-05, No Iterations 4
time step continuity errors : sum local = 4.71572e-07, global = -1.64151e-07, cumulative = 2.886e-07
GAMG:  Solving for p, Initial residual = 0.0271419, Final residual = 0.000229308, No Iterations 4
GAMG:  Solving for p, Initial residual = 0.00525919, Final residual = 4.42527e-05, No Iterations 14
GAMG:  Solving for p, Initial residual = 0.00228951, Final residual = 1.83569e-05, No Iterations 4
time step continuity errors : sum local = 1.96153e-07, global = -7.09574e-08, cumulative = 2.17642e-07
PIMPLE: iteration 3
DILUPBiCG:  Solving for Ux, Initial residual = 0.00333676, Final residual = 2.55961e-06, No Iterations 2
DILUPBiCG:  Solving for Uy, Initial residual = 0.000730398, Final residual = 4.77461e-06, No Iterations 1
DILUPBiCG:  Solving for Uz, Initial residual = 0.00581468, Final residual = 1.98026e-06, No Iterations 2
GAMG:  Solving for p, Initial residual = 0.0446129, Final residual = 0.000325202, No Iterations 5
GAMG:  Solving for p, Initial residual = 0.0101178, Final residual = 9.25365e-05, No Iterations 14
GAMG:  Solving for p, Initial residual = 0.00515497, Final residual = 4.50201e-05, No Iterations 10
time step continuity errors : sum local = 5.37494e-07, global = -1.40782e-07, cumulative = 7.68601e-08
GAMG:  Solving for p, Initial residual = 0.00252623, Final residual = 1.91574e-05, No Iterations 6
GAMG:  Solving for p, Initial residual = 0.00133875, Final residual = 1.02984e-05, No Iterations 4
GAMG:  Solving for p, Initial residual = 0.000561863, Final residual = 8.7398e-07, No Iterations 22
time step continuity errors : sum local = 1.03157e-08, global = 2.8693e-09, cumulative = 7.97294e-08
DILUPBiCG:  Solving for omega, Initial residual = 0.00123266, Final residual = 7.86178e-07, No Iterations 1
DILUPBiCG:  Solving for k, Initial residual = 0.00377823, Final residual = 6.2318e-07, No Iterations 2
bounding k, min: 0 max: 0.00065942 average: 0.00015688
ExecutionTime = 11.41 s  ClockTime = 11 s

End

