/*---------------------------------------------------------------------------*\
| =========                 |                                                 |
| \\      /  F ield         | OpenFOAM: The Open Source CFD Toolbox           |
|  \\    /   O peration     | Version:  2.3.1                                 |
|   \\  /    A nd           | Web:      www.OpenFOAM.org                      |
|    \\/     M anipulation  |                                                 |
\*---------------------------------------------------------------------------*/
Build  : 2.3.1-262087cdf8db
Exec   : pimpleDyMFoam
Date   : Jun 05 2023
Time   : 23:59:48
Host   : "jcosson-VirtualBox"
PID    : 21461
Case   : /home/jcosson/workspace/henersj_shootingdata/calcs/moderate_deformed/primal/100_intervals_05-06-23/sweep10/interval48
nProcs : 1
sigFpe : Enabling floating point exception trapping (FOAM_SIGFPE).
fileModificationChecking : Monitoring run-time modified files using timeStampMaster
allowSystemOperations : Allowing user-supplied system call operations

// * * * * * * * * * * * * * * * * * * * * * * * * * * * * * * * * * * * * * //
Create time

Create mesh for time = 0.447

Selecting dynamicFvMesh dynamicMotionSolverFvMesh
Selecting motion solver: displacementLaplacian
Selecting motion diffusion: quadratic
Selecting motion diffusion: quadratic
Selecting motion diffusion: inverseDistance

PIMPLE: no residual control data found. Calculations will employ 3 corrector loops

Reading field p

Reading field U

Reading/calculating face flux field phi

Selecting incompressible transport model Newtonian
Selecting turbulence model type RASModel
Selecting RAS turbulence model kOmegaSST
kOmegaSSTCoeffs
{
    alphaK1         0.85034;
    alphaK2         1;
    alphaOmega1     0.5;
    alphaOmega2     0.85616;
    gamma1          0.5532;
    gamma2          0.4403;
    beta1           0.075;
    beta2           0.0828;
    betaStar        0.09;
    a1              0.31;
    c1              10;
    Cmu             0.09;
    b1              1;
    F3              false;
}

Reading/calculating face velocity Uf

No finite volume options present

Courant Number mean: 0.277874 max: 0.620917

Starting time loop

Courant Number mean: 0.277874 max: 0.620917
Time = 0.448

GAMG:  Solving for cellDisplacementx, Initial residual = 0, Final residual = 0, No Iterations 0
GAMG:  Solving for cellDisplacementy, Initial residual = 0, Final residual = 0, No Iterations 0
GAMG:  Solving for cellDisplacementz, Initial residual = 0, Final residual = 0, No Iterations 0
PIMPLE: iteration 1
DILUPBiCG:  Solving for Ux, Initial residual = 0.00930796, Final residual = 4.3821e-05, No Iterations 1
DILUPBiCG:  Solving for Uy, Initial residual = 0.00148506, Final residual = 7.08992e-06, No Iterations 1
DILUPBiCG:  Solving for Uz, Initial residual = 0.0137438, Final residual = 3.4162e-05, No Iterations 1
GAMG:  Solving for p, Initial residual = 0.147054, Final residual = 0.000897618, No Iterations 3
GAMG:  Solving for p, Initial residual = 0.0244311, Final residual = 0.000148621, No Iterations 4
GAMG:  Solving for p, Initial residual = 0.00989131, Final residual = 2.96137e-05, No Iterations 5
time step continuity errors : sum local = 1.05366e-07, global = -2.62799e-09, cumulative = -2.62799e-09
GAMG:  Solving for p, Initial residual = 0.0729063, Final residual = 0.000373971, No Iterations 3
GAMG:  Solving for p, Initial residual = 0.0119823, Final residual = 6.46537e-05, No Iterations 4
GAMG:  Solving for p, Initial residual = 0.00496711, Final residual = 4.23203e-05, No Iterations 4
time step continuity errors : sum local = 1.51058e-07, global = -1.51065e-08, cumulative = -1.77345e-08
PIMPLE: iteration 2
DILUPBiCG:  Solving for Ux, Initial residual = 0.0022853, Final residual = 1.73499e-05, No Iterations 1
DILUPBiCG:  Solving for Uy, Initial residual = 0.000375045, Final residual = 9.79172e-06, No Iterations 1
DILUPBiCG:  Solving for Uz, Initial residual = 0.00413618, Final residual = 1.30752e-05, No Iterations 1
GAMG:  Solving for p, Initial residual = 0.0745177, Final residual = 0.000589844, No Iterations 5
GAMG:  Solving for p, Initial residual = 0.0222741, Final residual = 0.00020381, No Iterations 9
GAMG:  Solving for p, Initial residual = 0.00708809, Final residual = 7.01274e-05, No Iterations 14
time step continuity errors : sum local = 2.1594e-07, global = 6.54701e-08, cumulative = 4.77356e-08
GAMG:  Solving for p, Initial residual = 0.0402732, Final residual = 0.000361767, No Iterations 4
GAMG:  Solving for p, Initial residual = 0.0104998, Final residual = 9.79634e-05, No Iterations 10
GAMG:  Solving for p, Initial residual = 0.00351281, Final residual = 3.14356e-05, No Iterations 14
time step continuity errors : sum local = 9.74202e-08, global = 2.93099e-08, cumulative = 7.70455e-08
PIMPLE: iteration 3
DILUPBiCG:  Solving for Ux, Initial residual = 0.000313829, Final residual = 4.07834e-06, No Iterations 1
DILUPBiCG:  Solving for Uy, Initial residual = 6.10591e-05, Final residual = 1.14209e-06, No Iterations 1
DILUPBiCG:  Solving for Uz, Initial residual = 0.00277643, Final residual = 3.44232e-07, No Iterations 2
GAMG:  Solving for p, Initial residual = 0.0656474, Final residual = 0.000485689, No Iterations 5
GAMG:  Solving for p, Initial residual = 0.0176619, Final residual = 0.000173395, No Iterations 12
GAMG:  Solving for p, Initial residual = 0.00820628, Final residual = 7.06018e-05, No Iterations 10
time step continuity errors : sum local = 2.38654e-07, global = 6.15411e-08, cumulative = 1.38587e-07
GAMG:  Solving for p, Initial residual = 0.00589422, Final residual = 5.18952e-05, No Iterations 9
GAMG:  Solving for p, Initial residual = 0.00316001, Final residual = 3.05561e-05, No Iterations 4
GAMG:  Solving for p, Initial residual = 0.00104729, Final residual = 9.9736e-07, No Iterations 44
time step continuity errors : sum local = 3.35043e-09, global = -9.93993e-10, cumulative = 1.37593e-07
DILUPBiCG:  Solving for omega, Initial residual = 0.00134782, Final residual = 1.84411e-06, No Iterations 1
DILUPBiCG:  Solving for k, Initial residual = 0.00585131, Final residual = 9.14779e-07, No Iterations 2
ExecutionTime = 15.27 s  ClockTime = 15 s

End

