/*---------------------------------------------------------------------------*\
| =========                 |                                                 |
| \\      /  F ield         | OpenFOAM: The Open Source CFD Toolbox           |
|  \\    /   O peration     | Version:  2.3.1                                 |
|   \\  /    A nd           | Web:      www.OpenFOAM.org                      |
|    \\/     M anipulation  |                                                 |
\*---------------------------------------------------------------------------*/
Build  : 2.3.1-262087cdf8db
Exec   : pimpleDyMFoam
Date   : Jun 04 2023
Time   : 16:51:47
Host   : "jcosson-VirtualBox"
PID    : 3683
Case   : /home/jcosson/workspace/henersj_shootingdata/calcs/moderate_deformed/primal/10_intervals_04-06-23/sweep2/interval4
nProcs : 1
sigFpe : Enabling floating point exception trapping (FOAM_SIGFPE).
fileModificationChecking : Monitoring run-time modified files using timeStampMaster
allowSystemOperations : Allowing user-supplied system call operations

// * * * * * * * * * * * * * * * * * * * * * * * * * * * * * * * * * * * * * //
Create time

Create mesh for time = 0.43

Selecting dynamicFvMesh dynamicMotionSolverFvMesh
Selecting motion solver: displacementLaplacian
Selecting motion diffusion: quadratic
Selecting motion diffusion: quadratic
Selecting motion diffusion: inverseDistance

PIMPLE: no residual control data found. Calculations will employ 3 corrector loops

Reading field p

Reading field U

Reading/calculating face flux field phi

Selecting incompressible transport model Newtonian
Selecting turbulence model type RASModel
Selecting RAS turbulence model kOmegaSST
kOmegaSSTCoeffs
{
    alphaK1         0.85034;
    alphaK2         1;
    alphaOmega1     0.5;
    alphaOmega2     0.85616;
    gamma1          0.5532;
    gamma2          0.4403;
    beta1           0.075;
    beta2           0.0828;
    betaStar        0.09;
    a1              0.31;
    c1              10;
    Cmu             0.09;
    b1              1;
    F3              false;
}

Reading/calculating face velocity Uf

No finite volume options present

Courant Number mean: 0.216013 max: 0.471811

Starting time loop

Courant Number mean: 0.216013 max: 0.471811
Time = 0.431

GAMG:  Solving for cellDisplacementx, Initial residual = 0, Final residual = 0, No Iterations 0
GAMG:  Solving for cellDisplacementy, Initial residual = 0, Final residual = 0, No Iterations 0
GAMG:  Solving for cellDisplacementz, Initial residual = 0, Final residual = 0, No Iterations 0
PIMPLE: iteration 1
DILUPBiCG:  Solving for Ux, Initial residual = 0.0504784, Final residual = 0.000166303, No Iterations 1
DILUPBiCG:  Solving for Uy, Initial residual = 0.00820694, Final residual = 1.81598e-05, No Iterations 1
DILUPBiCG:  Solving for Uz, Initial residual = 0.0202712, Final residual = 3.34527e-05, No Iterations 1
GAMG:  Solving for p, Initial residual = 0.124624, Final residual = 0.000815121, No Iterations 6
GAMG:  Solving for p, Initial residual = 0.0151989, Final residual = 0.000133342, No Iterations 18
GAMG:  Solving for p, Initial residual = 0.0066858, Final residual = 6.01879e-05, No Iterations 10
time step continuity errors : sum local = 8.58585e-07, global = -2.19579e-07, cumulative = -2.19579e-07
GAMG:  Solving for p, Initial residual = 0.0537687, Final residual = 0.000482277, No Iterations 4
GAMG:  Solving for p, Initial residual = 0.0075809, Final residual = 6.87998e-05, No Iterations 18
GAMG:  Solving for p, Initial residual = 0.00351189, Final residual = 3.20902e-05, No Iterations 10
time step continuity errors : sum local = 4.58152e-07, global = -1.17734e-07, cumulative = -3.37313e-07
PIMPLE: iteration 2
DILUPBiCG:  Solving for Ux, Initial residual = 0.0142706, Final residual = 6.09331e-05, No Iterations 1
DILUPBiCG:  Solving for Uy, Initial residual = 0.00233067, Final residual = 6.98457e-06, No Iterations 1
DILUPBiCG:  Solving for Uz, Initial residual = 0.00396428, Final residual = 4.96419e-05, No Iterations 1
GAMG:  Solving for p, Initial residual = 0.0543954, Final residual = 0.000542301, No Iterations 4
GAMG:  Solving for p, Initial residual = 0.00986849, Final residual = 8.73381e-05, No Iterations 16
GAMG:  Solving for p, Initial residual = 0.0043297, Final residual = 4.08821e-05, No Iterations 8
time step continuity errors : sum local = 4.93658e-07, global = 1.40918e-07, cumulative = -1.96395e-07
GAMG:  Solving for p, Initial residual = 0.0281589, Final residual = 0.00023453, No Iterations 4
GAMG:  Solving for p, Initial residual = 0.00487429, Final residual = 4.16705e-05, No Iterations 14
GAMG:  Solving for p, Initial residual = 0.00202578, Final residual = 2.01294e-05, No Iterations 8
time step continuity errors : sum local = 2.44635e-07, global = 6.14704e-08, cumulative = -1.34925e-07
PIMPLE: iteration 3
DILUPBiCG:  Solving for Ux, Initial residual = 0.00339742, Final residual = 1.19193e-06, No Iterations 2
DILUPBiCG:  Solving for Uy, Initial residual = 0.000554707, Final residual = 8.75073e-06, No Iterations 1
DILUPBiCG:  Solving for Uz, Initial residual = 0.00947697, Final residual = 2.74948e-06, No Iterations 2
GAMG:  Solving for p, Initial residual = 0.0406656, Final residual = 0.00033225, No Iterations 5
GAMG:  Solving for p, Initial residual = 0.00984886, Final residual = 8.40593e-05, No Iterations 7
GAMG:  Solving for p, Initial residual = 0.00430687, Final residual = 3.96945e-05, No Iterations 8
time step continuity errors : sum local = 5.39403e-07, global = 1.18716e-07, cumulative = -1.62082e-08
GAMG:  Solving for p, Initial residual = 0.00247639, Final residual = 2.15154e-05, No Iterations 20
GAMG:  Solving for p, Initial residual = 0.00147168, Final residual = 1.11285e-05, No Iterations 4
GAMG:  Solving for p, Initial residual = 0.000543663, Final residual = 9.71697e-07, No Iterations 32
time step continuity errors : sum local = 1.31853e-08, global = -3.88456e-09, cumulative = -2.00927e-08
DILUPBiCG:  Solving for omega, Initial residual = 0.000948816, Final residual = 1.03744e-06, No Iterations 1
DILUPBiCG:  Solving for k, Initial residual = 0.00548342, Final residual = 1.209e-06, No Iterations 2
ExecutionTime = 10.22 s  ClockTime = 11 s

Courant Number mean: 0.221478 max: 0.484114
Time = 0.432

GAMG:  Solving for cellDisplacementx, Initial residual = 0, Final residual = 0, No Iterations 0
GAMG:  Solving for cellDisplacementy, Initial residual = 0, Final residual = 0, No Iterations 0
GAMG:  Solving for cellDisplacementz, Initial residual = 0, Final residual = 0, No Iterations 0
PIMPLE: iteration 1
DILUPBiCG:  Solving for Ux, Initial residual = 0.0486298, Final residual = 0.000159367, No Iterations 1
DILUPBiCG:  Solving for Uy, Initial residual = 0.00778925, Final residual = 1.73748e-05, No Iterations 1
DILUPBiCG:  Solving for Uz, Initial residual = 0.0174436, Final residual = 2.30069e-05, No Iterations 1
GAMG:  Solving for p, Initial residual = 0.114207, Final residual = 0.000759699, No Iterations 6
GAMG:  Solving for p, Initial residual = 0.0133539, Final residual = 0.000130964, No Iterations 16
GAMG:  Solving for p, Initial residual = 0.00579956, Final residual = 4.87224e-05, No Iterations 12
time step continuity errors : sum local = 6.82958e-07, global = -2.06752e-07, cumulative = -2.26845e-07
GAMG:  Solving for p, Initial residual = 0.0494194, Final residual = 0.000450872, No Iterations 4
GAMG:  Solving for p, Initial residual = 0.00661021, Final residual = 5.67362e-05, No Iterations 18
GAMG:  Solving for p, Initial residual = 0.00303515, Final residual = 2.50492e-05, No Iterations 10
time step continuity errors : sum local = 3.51078e-07, global = -9.35871e-08, cumulative = -3.20432e-07
PIMPLE: iteration 2
DILUPBiCG:  Solving for Ux, Initial residual = 0.0136991, Final residual = 5.73105e-05, No Iterations 1
DILUPBiCG:  Solving for Uy, Initial residual = 0.00223299, Final residual = 6.93781e-06, No Iterations 1
DILUPBiCG:  Solving for Uz, Initial residual = 0.00365085, Final residual = 1.69502e-05, No Iterations 1
GAMG:  Solving for p, Initial residual = 0.0496847, Final residual = 0.000317148, No Iterations 6
GAMG:  Solving for p, Initial residual = 0.0088618, Final residual = 7.90637e-05, No Iterations 16
GAMG:  Solving for p, Initial residual = 0.00359066, Final residual = 3.30759e-05, No Iterations 10
time step continuity errors : sum local = 3.91183e-07, global = 9.9883e-08, cumulative = -2.20549e-07
GAMG:  Solving for p, Initial residual = 0.02574, Final residual = 0.000234875, No Iterations 4
GAMG:  Solving for p, Initial residual = 0.00431814, Final residual = 4.28416e-05, No Iterations 14
GAMG:  Solving for p, Initial residual = 0.00173597, Final residual = 1.613e-05, No Iterations 12
time step continuity errors : sum local = 1.92064e-07, global = 5.44374e-08, cumulative = -1.66112e-07
PIMPLE: iteration 3
DILUPBiCG:  Solving for Ux, Initial residual = 0.00320838, Final residual = 1.17568e-06, No Iterations 2
DILUPBiCG:  Solving for Uy, Initial residual = 0.000529172, Final residual = 9.28497e-06, No Iterations 1
DILUPBiCG:  Solving for Uz, Initial residual = 0.00743037, Final residual = 3.08603e-06, No Iterations 2
GAMG:  Solving for p, Initial residual = 0.040473, Final residual = 0.000339915, No Iterations 5
GAMG:  Solving for p, Initial residual = 0.0101739, Final residual = 5.9468e-05, No Iterations 5
GAMG:  Solving for p, Initial residual = 0.00438278, Final residual = 3.69076e-05, No Iterations 5
time step continuity errors : sum local = 4.89963e-07, global = 1.11321e-07, cumulative = -5.47905e-08
GAMG:  Solving for p, Initial residual = 0.002513, Final residual = 2.40328e-05, No Iterations 20
GAMG:  Solving for p, Initial residual = 0.00149385, Final residual = 1.28969e-05, No Iterations 4
GAMG:  Solving for p, Initial residual = 0.000552515, Final residual = 9.78027e-07, No Iterations 36
time step continuity errors : sum local = 1.29821e-08, global = -3.8126e-09, cumulative = -5.86031e-08
DILUPBiCG:  Solving for omega, Initial residual = 0.000951195, Final residual = 1.04561e-06, No Iterations 1
DILUPBiCG:  Solving for k, Initial residual = 0.00560754, Final residual = 1.22096e-06, No Iterations 2
ExecutionTime = 18.74 s  ClockTime = 19 s

Courant Number mean: 0.226791 max: 0.496099
Time = 0.433

GAMG:  Solving for cellDisplacementx, Initial residual = 0, Final residual = 0, No Iterations 0
GAMG:  Solving for cellDisplacementy, Initial residual = 0, Final residual = 0, No Iterations 0
GAMG:  Solving for cellDisplacementz, Initial residual = 0, Final residual = 0, No Iterations 0
PIMPLE: iteration 1
DILUPBiCG:  Solving for Ux, Initial residual = 0.0463384, Final residual = 0.000151402, No Iterations 1
DILUPBiCG:  Solving for Uy, Initial residual = 0.007433, Final residual = 1.69645e-05, No Iterations 1
DILUPBiCG:  Solving for Uz, Initial residual = 0.0165737, Final residual = 2.69574e-05, No Iterations 1
GAMG:  Solving for p, Initial residual = 0.113215, Final residual = 0.00077097, No Iterations 6
GAMG:  Solving for p, Initial residual = 0.0134846, Final residual = 0.000127399, No Iterations 18
GAMG:  Solving for p, Initial residual = 0.00600425, Final residual = 5.8959e-05, No Iterations 10
time step continuity errors : sum local = 8.1033e-07, global = -2.08108e-07, cumulative = -2.66711e-07
GAMG:  Solving for p, Initial residual = 0.049101, Final residual = 0.000459686, No Iterations 4
GAMG:  Solving for p, Initial residual = 0.00671799, Final residual = 6.55372e-05, No Iterations 18
GAMG:  Solving for p, Initial residual = 0.00315995, Final residual = 3.11777e-05, No Iterations 10
time step continuity errors : sum local = 4.28667e-07, global = -1.10411e-07, cumulative = -3.77123e-07
PIMPLE: iteration 2
DILUPBiCG:  Solving for Ux, Initial residual = 0.0131106, Final residual = 5.39476e-05, No Iterations 1
DILUPBiCG:  Solving for Uy, Initial residual = 0.00212752, Final residual = 6.82988e-06, No Iterations 1
DILUPBiCG:  Solving for Uz, Initial residual = 0.00359745, Final residual = 1.123e-05, No Iterations 1
GAMG:  Solving for p, Initial residual = 0.0491833, Final residual = 0.000315843, No Iterations 6
GAMG:  Solving for p, Initial residual = 0.00910431, Final residual = 7.82736e-05, No Iterations 16
GAMG:  Solving for p, Initial residual = 0.00370871, Final residual = 3.23628e-05, No Iterations 10
time step continuity errors : sum local = 3.75952e-07, global = 1.08937e-07, cumulative = -2.68186e-07
GAMG:  Solving for p, Initial residual = 0.025474, Final residual = 0.000236793, No Iterations 4
GAMG:  Solving for p, Initial residual = 0.00438546, Final residual = 4.18321e-05, No Iterations 14
GAMG:  Solving for p, Initial residual = 0.00179055, Final residual = 1.51931e-05, No Iterations 12
time step continuity errors : sum local = 1.7784e-07, global = 5.15176e-08, cumulative = -2.16668e-07
PIMPLE: iteration 3
DILUPBiCG:  Solving for Ux, Initial residual = 0.00308687, Final residual = 1.14995e-06, No Iterations 2
DILUPBiCG:  Solving for Uy, Initial residual = 0.000502415, Final residual = 8.94827e-06, No Iterations 1
DILUPBiCG:  Solving for Uz, Initial residual = 0.00869665, Final residual = 2.57094e-06, No Iterations 2
GAMG:  Solving for p, Initial residual = 0.0408433, Final residual = 0.000305581, No Iterations 5
GAMG:  Solving for p, Initial residual = 0.0102631, Final residual = 7.22964e-05, No Iterations 5
GAMG:  Solving for p, Initial residual = 0.00437466, Final residual = 4.36544e-05, No Iterations 6
time step continuity errors : sum local = 5.7127e-07, global = 1.08584e-07, cumulative = -1.08084e-07
GAMG:  Solving for p, Initial residual = 0.00256885, Final residual = 2.32471e-05, No Iterations 20
GAMG:  Solving for p, Initial residual = 0.00153674, Final residual = 1.17353e-05, No Iterations 4
GAMG:  Solving for p, Initial residual = 0.000558107, Final residual = 9.42601e-07, No Iterations 34
time step continuity errors : sum local = 1.22936e-08, global = -3.60474e-09, cumulative = -1.11688e-07
DILUPBiCG:  Solving for omega, Initial residual = 0.000959934, Final residual = 1.06107e-06, No Iterations 1
DILUPBiCG:  Solving for k, Initial residual = 0.00573542, Final residual = 1.24231e-06, No Iterations 2
ExecutionTime = 26.84 s  ClockTime = 27 s

Courant Number mean: 0.231967 max: 0.507714
Time = 0.434

GAMG:  Solving for cellDisplacementx, Initial residual = 0, Final residual = 0, No Iterations 0
GAMG:  Solving for cellDisplacementy, Initial residual = 0, Final residual = 0, No Iterations 0
GAMG:  Solving for cellDisplacementz, Initial residual = 0, Final residual = 0, No Iterations 0
PIMPLE: iteration 1
DILUPBiCG:  Solving for Ux, Initial residual = 0.044276, Final residual = 0.000144331, No Iterations 1
DILUPBiCG:  Solving for Uy, Initial residual = 0.00702916, Final residual = 1.62688e-05, No Iterations 1
DILUPBiCG:  Solving for Uz, Initial residual = 0.0155121, Final residual = 2.13963e-05, No Iterations 1
GAMG:  Solving for p, Initial residual = 0.111672, Final residual = 0.000717531, No Iterations 6
GAMG:  Solving for p, Initial residual = 0.0133523, Final residual = 0.000126141, No Iterations 16
GAMG:  Solving for p, Initial residual = 0.00578267, Final residual = 5.67946e-05, No Iterations 10
time step continuity errors : sum local = 7.60145e-07, global = -2.02948e-07, cumulative = -3.14636e-07
GAMG:  Solving for p, Initial residual = 0.0485911, Final residual = 0.000428455, No Iterations 4
GAMG:  Solving for p, Initial residual = 0.00659767, Final residual = 6.41184e-05, No Iterations 16
GAMG:  Solving for p, Initial residual = 0.0030127, Final residual = 2.99923e-05, No Iterations 10
time step continuity errors : sum local = 4.01123e-07, global = -1.08169e-07, cumulative = -4.22805e-07
PIMPLE: iteration 2
DILUPBiCG:  Solving for Ux, Initial residual = 0.0124873, Final residual = 5.05533e-05, No Iterations 1
DILUPBiCG:  Solving for Uy, Initial residual = 0.0020227, Final residual = 6.76288e-06, No Iterations 1
DILUPBiCG:  Solving for Uz, Initial residual = 0.00331064, Final residual = 1.06172e-05, No Iterations 1
GAMG:  Solving for p, Initial residual = 0.0485816, Final residual = 0.000320732, No Iterations 6
GAMG:  Solving for p, Initial residual = 0.00913166, Final residual = 8.03475e-05, No Iterations 16
GAMG:  Solving for p, Initial residual = 0.00362046, Final residual = 3.37369e-05, No Iterations 10
time step continuity errors : sum local = 3.80929e-07, global = 9.65024e-08, cumulative = -3.26302e-07
GAMG:  Solving for p, Initial residual = 0.0252486, Final residual = 0.000239318, No Iterations 4
GAMG:  Solving for p, Initial residual = 0.00441389, Final residual = 4.34979e-05, No Iterations 14
GAMG:  Solving for p, Initial residual = 0.00173299, Final residual = 1.66319e-05, No Iterations 12
time step continuity errors : sum local = 1.89129e-07, global = 5.37029e-08, cumulative = -2.72599e-07
PIMPLE: iteration 3
DILUPBiCG:  Solving for Ux, Initial residual = 0.00290049, Final residual = 1.11982e-06, No Iterations 2
DILUPBiCG:  Solving for Uy, Initial residual = 0.000475298, Final residual = 9.57013e-06, No Iterations 1
DILUPBiCG:  Solving for Uz, Initial residual = 0.00703034, Final residual = 3.34771e-06, No Iterations 2
GAMG:  Solving for p, Initial residual = 0.0413956, Final residual = 0.000367716, No Iterations 5
GAMG:  Solving for p, Initial residual = 0.0105907, Final residual = 9.39115e-05, No Iterations 8
GAMG:  Solving for p, Initial residual = 0.00454713, Final residual = 4.01774e-05, No Iterations 10
time step continuity errors : sum local = 5.09592e-07, global = 1.30317e-07, cumulative = -1.42282e-07
GAMG:  Solving for p, Initial residual = 0.00266622, Final residual = 2.60494e-05, No Iterations 18
GAMG:  Solving for p, Initial residual = 0.00159657, Final residual = 1.40426e-05, No Iterations 4
GAMG:  Solving for p, Initial residual = 0.000572343, Final residual = 9.25349e-07, No Iterations 38
time step continuity errors : sum local = 1.17102e-08, global = -3.45535e-09, cumulative = -1.45737e-07
DILUPBiCG:  Solving for omega, Initial residual = 0.000974821, Final residual = 1.08617e-06, No Iterations 1
DILUPBiCG:  Solving for k, Initial residual = 0.00586816, Final residual = 1.27094e-06, No Iterations 2
ExecutionTime = 35.18 s  ClockTime = 36 s

Courant Number mean: 0.236952 max: 0.51891
Time = 0.435

GAMG:  Solving for cellDisplacementx, Initial residual = 0, Final residual = 0, No Iterations 0
GAMG:  Solving for cellDisplacementy, Initial residual = 0, Final residual = 0, No Iterations 0
GAMG:  Solving for cellDisplacementz, Initial residual = 0, Final residual = 0, No Iterations 0
PIMPLE: iteration 1
DILUPBiCG:  Solving for Ux, Initial residual = 0.0418999, Final residual = 0.000136554, No Iterations 1
DILUPBiCG:  Solving for Uy, Initial residual = 0.0066485, Final residual = 1.57376e-05, No Iterations 1
DILUPBiCG:  Solving for Uz, Initial residual = 0.0146175, Final residual = 2.35764e-05, No Iterations 1
GAMG:  Solving for p, Initial residual = 0.110727, Final residual = 0.000720728, No Iterations 6
GAMG:  Solving for p, Initial residual = 0.0135363, Final residual = 0.000121575, No Iterations 18
GAMG:  Solving for p, Initial residual = 0.00601436, Final residual = 5.62821e-05, No Iterations 10
time step continuity errors : sum local = 7.31568e-07, global = -1.88492e-07, cumulative = -3.3423e-07
GAMG:  Solving for p, Initial residual = 0.0483502, Final residual = 0.000434249, No Iterations 4
GAMG:  Solving for p, Initial residual = 0.00671291, Final residual = 6.23282e-05, No Iterations 18
GAMG:  Solving for p, Initial residual = 0.00315684, Final residual = 2.98128e-05, No Iterations 10
time step continuity errors : sum local = 3.87576e-07, global = -1.00346e-07, cumulative = -4.34576e-07
PIMPLE: iteration 2
DILUPBiCG:  Solving for Ux, Initial residual = 0.011852, Final residual = 4.73669e-05, No Iterations 1
DILUPBiCG:  Solving for Uy, Initial residual = 0.00191373, Final residual = 6.65768e-06, No Iterations 1
DILUPBiCG:  Solving for Uz, Initial residual = 0.00333908, Final residual = 9.27903e-06, No Iterations 1
GAMG:  Solving for p, Initial residual = 0.048158, Final residual = 0.000320675, No Iterations 6
GAMG:  Solving for p, Initial residual = 0.00942396, Final residual = 9.33723e-05, No Iterations 14
GAMG:  Solving for p, Initial residual = 0.00368521, Final residual = 3.39017e-05, No Iterations 12
time step continuity errors : sum local = 3.72682e-07, global = 1.06693e-07, cumulative = -3.27883e-07
GAMG:  Solving for p, Initial residual = 0.0249862, Final residual = 0.00024147, No Iterations 4
GAMG:  Solving for p, Initial residual = 0.00449225, Final residual = 4.22894e-05, No Iterations 14
GAMG:  Solving for p, Initial residual = 0.00179204, Final residual = 1.57631e-05, No Iterations 12
time step continuity errors : sum local = 1.7451e-07, global = 5.06714e-08, cumulative = -2.77212e-07
PIMPLE: iteration 3
DILUPBiCG:  Solving for Ux, Initial residual = 0.00275548, Final residual = 1.07699e-06, No Iterations 2
DILUPBiCG:  Solving for Uy, Initial residual = 0.00044868, Final residual = 9.09046e-06, No Iterations 1
DILUPBiCG:  Solving for Uz, Initial residual = 0.00793096, Final residual = 2.46658e-06, No Iterations 2
GAMG:  Solving for p, Initial residual = 0.0418101, Final residual = 0.000348934, No Iterations 5
GAMG:  Solving for p, Initial residual = 0.0107464, Final residual = 9.07191e-05, No Iterations 6
GAMG:  Solving for p, Initial residual = 0.00457503, Final residual = 4.54532e-05, No Iterations 8
time step continuity errors : sum local = 5.60426e-07, global = 1.23924e-07, cumulative = -1.53287e-07
GAMG:  Solving for p, Initial residual = 0.00268779, Final residual = 2.63562e-05, No Iterations 18
GAMG:  Solving for p, Initial residual = 0.00162242, Final residual = 1.37345e-05, No Iterations 4
GAMG:  Solving for p, Initial residual = 0.000581046, Final residual = 9.11326e-07, No Iterations 38
time step continuity errors : sum local = 1.12177e-08, global = -3.31261e-09, cumulative = -1.566e-07
DILUPBiCG:  Solving for omega, Initial residual = 0.000995288, Final residual = 1.11935e-06, No Iterations 1
DILUPBiCG:  Solving for k, Initial residual = 0.00598761, Final residual = 1.30587e-06, No Iterations 2
ExecutionTime = 44.51 s  ClockTime = 45 s

Courant Number mean: 0.241756 max: 0.529643
Time = 0.436

GAMG:  Solving for cellDisplacementx, Initial residual = 0, Final residual = 0, No Iterations 0
GAMG:  Solving for cellDisplacementy, Initial residual = 0, Final residual = 0, No Iterations 0
GAMG:  Solving for cellDisplacementz, Initial residual = 0, Final residual = 0, No Iterations 0
PIMPLE: iteration 1
DILUPBiCG:  Solving for Ux, Initial residual = 0.0396624, Final residual = 0.000129385, No Iterations 1
DILUPBiCG:  Solving for Uy, Initial residual = 0.00624852, Final residual = 1.50468e-05, No Iterations 1
DILUPBiCG:  Solving for Uz, Initial residual = 0.0139099, Final residual = 2.02035e-05, No Iterations 1
GAMG:  Solving for p, Initial residual = 0.109314, Final residual = 0.00107229, No Iterations 4
GAMG:  Solving for p, Initial residual = 0.0134472, Final residual = 0.000126455, No Iterations 18
GAMG:  Solving for p, Initial residual = 0.00603539, Final residual = 5.37905e-05, No Iterations 10
time step continuity errors : sum local = 6.74524e-07, global = -1.78595e-07, cumulative = -3.35195e-07
GAMG:  Solving for p, Initial residual = 0.0478477, Final residual = 0.000400878, No Iterations 4
GAMG:  Solving for p, Initial residual = 0.00659903, Final residual = 6.12785e-05, No Iterations 16
GAMG:  Solving for p, Initial residual = 0.0030086, Final residual = 2.84389e-05, No Iterations 10
time step continuity errors : sum local = 3.56335e-07, global = -9.54573e-08, cumulative = -4.30652e-07
PIMPLE: iteration 2
DILUPBiCG:  Solving for Ux, Initial residual = 0.0111869, Final residual = 4.41806e-05, No Iterations 1
DILUPBiCG:  Solving for Uy, Initial residual = 0.00180391, Final residual = 6.58297e-06, No Iterations 1
DILUPBiCG:  Solving for Uz, Initial residual = 0.00305602, Final residual = 9.07803e-06, No Iterations 1
GAMG:  Solving for p, Initial residual = 0.0475645, Final residual = 0.000325045, No Iterations 6
GAMG:  Solving for p, Initial residual = 0.0095049, Final residual = 8.17091e-05, No Iterations 16
GAMG:  Solving for p, Initial residual = 0.00366924, Final residual = 3.45143e-05, No Iterations 10
time step continuity errors : sum local = 3.6509e-07, global = 9.20938e-08, cumulative = -3.38558e-07
GAMG:  Solving for p, Initial residual = 0.0248082, Final residual = 0.000244796, No Iterations 4
GAMG:  Solving for p, Initial residual = 0.00456978, Final residual = 4.42755e-05, No Iterations 14
GAMG:  Solving for p, Initial residual = 0.00174162, Final residual = 1.71923e-05, No Iterations 12
time step continuity errors : sum local = 1.83214e-07, global = 5.224e-08, cumulative = -2.86318e-07
PIMPLE: iteration 3
DILUPBiCG:  Solving for Ux, Initial residual = 0.00256766, Final residual = 1.02587e-06, No Iterations 2
DILUPBiCG:  Solving for Uy, Initial residual = 0.000419309, Final residual = 9.74604e-06, No Iterations 1
DILUPBiCG:  Solving for Uz, Initial residual = 0.00652725, Final residual = 3.85264e-06, No Iterations 2
GAMG:  Solving for p, Initial residual = 0.0424053, Final residual = 0.000375405, No Iterations 5
GAMG:  Solving for p, Initial residual = 0.011072, Final residual = 9.2523e-05, No Iterations 10
GAMG:  Solving for p, Initial residual = 0.00474594, Final residual = 4.09762e-05, No Iterations 10
time step continuity errors : sum local = 4.86119e-07, global = 1.24861e-07, cumulative = -1.61457e-07
GAMG:  Solving for p, Initial residual = 0.00280057, Final residual = 2.70438e-05, No Iterations 18
GAMG:  Solving for p, Initial residual = 0.00169473, Final residual = 1.45265e-05, No Iterations 4
GAMG:  Solving for p, Initial residual = 0.000596034, Final residual = 9.67271e-07, No Iterations 38
time step continuity errors : sum local = 1.14515e-08, global = -3.38035e-09, cumulative = -1.64838e-07
DILUPBiCG:  Solving for omega, Initial residual = 0.00102001, Final residual = 1.16048e-06, No Iterations 1
DILUPBiCG:  Solving for k, Initial residual = 0.00609472, Final residual = 1.34095e-06, No Iterations 2
ExecutionTime = 53.61 s  ClockTime = 54 s

Courant Number mean: 0.246333 max: 0.539865
Time = 0.437

GAMG:  Solving for cellDisplacementx, Initial residual = 0, Final residual = 0, No Iterations 0
GAMG:  Solving for cellDisplacementy, Initial residual = 0, Final residual = 0, No Iterations 0
GAMG:  Solving for cellDisplacementz, Initial residual = 0, Final residual = 0, No Iterations 0
PIMPLE: iteration 1
DILUPBiCG:  Solving for Ux, Initial residual = 0.037219, Final residual = 0.000121728, No Iterations 1
DILUPBiCG:  Solving for Uy, Initial residual = 0.00585445, Final residual = 1.44297e-05, No Iterations 1
DILUPBiCG:  Solving for Uz, Initial residual = 0.0130045, Final residual = 2.12525e-05, No Iterations 1
GAMG:  Solving for p, Initial residual = 0.108335, Final residual = 0.000666985, No Iterations 6
GAMG:  Solving for p, Initial residual = 0.0136361, Final residual = 0.000134927, No Iterations 16
GAMG:  Solving for p, Initial residual = 0.00602403, Final residual = 5.36193e-05, No Iterations 12
time step continuity errors : sum local = 6.45387e-07, global = -1.9111e-07, cumulative = -3.55947e-07
GAMG:  Solving for p, Initial residual = 0.0476401, Final residual = 0.000406921, No Iterations 4
GAMG:  Solving for p, Initial residual = 0.00673299, Final residual = 5.89178e-05, No Iterations 18
GAMG:  Solving for p, Initial residual = 0.00315588, Final residual = 2.79939e-05, No Iterations 10
time step continuity errors : sum local = 3.37372e-07, global = -8.77823e-08, cumulative = -4.4373e-07
PIMPLE: iteration 2
DILUPBiCG:  Solving for Ux, Initial residual = 0.0105128, Final residual = 4.1199e-05, No Iterations 1
DILUPBiCG:  Solving for Uy, Initial residual = 0.00169176, Final residual = 6.48004e-06, No Iterations 1
DILUPBiCG:  Solving for Uz, Initial residual = 0.00315874, Final residual = 8.65917e-06, No Iterations 1
GAMG:  Solving for p, Initial residual = 0.0471604, Final residual = 0.000326025, No Iterations 6
GAMG:  Solving for p, Initial residual = 0.00981589, Final residual = 9.4454e-05, No Iterations 14
GAMG:  Solving for p, Initial residual = 0.00370759, Final residual = 3.51762e-05, No Iterations 12
time step continuity errors : sum local = 3.586e-07, global = 1.02889e-07, cumulative = -3.40841e-07
GAMG:  Solving for p, Initial residual = 0.0245292, Final residual = 0.000221745, No Iterations 5
GAMG:  Solving for p, Initial residual = 0.00469466, Final residual = 4.6867e-05, No Iterations 11
GAMG:  Solving for p, Initial residual = 0.00172705, Final residual = 1.53998e-05, No Iterations 14
time step continuity errors : sum local = 1.58164e-07, global = 4.88584e-08, cumulative = -2.91982e-07
PIMPLE: iteration 3
DILUPBiCG:  Solving for Ux, Initial residual = 0.00240598, Final residual = 9.59947e-07, No Iterations 2
DILUPBiCG:  Solving for Uy, Initial residual = 0.000392351, Final residual = 9.17068e-06, No Iterations 1
DILUPBiCG:  Solving for Uz, Initial residual = 0.00714764, Final residual = 2.48745e-06, No Iterations 2
GAMG:  Solving for p, Initial residual = 0.0429505, Final residual = 0.000366492, No Iterations 5
GAMG:  Solving for p, Initial residual = 0.0112272, Final residual = 0.000102578, No Iterations 8
GAMG:  Solving for p, Initial residual = 0.00478996, Final residual = 4.60253e-05, No Iterations 10
time step continuity errors : sum local = 5.25486e-07, global = 1.35752e-07, cumulative = -1.5623e-07
GAMG:  Solving for p, Initial residual = 0.00284708, Final residual = 2.63676e-05, No Iterations 18
GAMG:  Solving for p, Initial residual = 0.00172804, Final residual = 1.33909e-05, No Iterations 4
GAMG:  Solving for p, Initial residual = 0.000606671, Final residual = 8.7445e-07, No Iterations 38
time step continuity errors : sum local = 9.96357e-09, global = -2.9406e-09, cumulative = -1.59171e-07
DILUPBiCG:  Solving for omega, Initial residual = 0.00104739, Final residual = 1.2071e-06, No Iterations 1
DILUPBiCG:  Solving for k, Initial residual = 0.00618968, Final residual = 1.37243e-06, No Iterations 2
ExecutionTime = 65.08 s  ClockTime = 65 s

Courant Number mean: 0.25069 max: 0.54955
Time = 0.438

GAMG:  Solving for cellDisplacementx, Initial residual = 0, Final residual = 0, No Iterations 0
GAMG:  Solving for cellDisplacementy, Initial residual = 0, Final residual = 0, No Iterations 0
GAMG:  Solving for cellDisplacementz, Initial residual = 0, Final residual = 0, No Iterations 0
PIMPLE: iteration 1
DILUPBiCG:  Solving for Ux, Initial residual = 0.0348537, Final residual = 0.000114502, No Iterations 1
DILUPBiCG:  Solving for Uy, Initial residual = 0.00545731, Final residual = 1.37343e-05, No Iterations 1
DILUPBiCG:  Solving for Uz, Initial residual = 0.0126044, Final residual = 1.95575e-05, No Iterations 1
GAMG:  Solving for p, Initial residual = 0.106981, Final residual = 0.000986446, No Iterations 4
GAMG:  Solving for p, Initial residual = 0.0135377, Final residual = 0.00012067, No Iterations 18
GAMG:  Solving for p, Initial residual = 0.0060673, Final residual = 4.94214e-05, No Iterations 10
time step continuity errors : sum local = 5.68376e-07, global = -1.50075e-07, cumulative = -3.09246e-07
GAMG:  Solving for p, Initial residual = 0.0471467, Final residual = 0.000370016, No Iterations 4
GAMG:  Solving for p, Initial residual = 0.00662096, Final residual = 5.86544e-05, No Iterations 16
GAMG:  Solving for p, Initial residual = 0.00301741, Final residual = 2.67867e-05, No Iterations 10
time step continuity errors : sum local = 3.07884e-07, global = -8.20242e-08, cumulative = -3.9127e-07
PIMPLE: iteration 2
DILUPBiCG:  Solving for Ux, Initial residual = 0.00981412, Final residual = 3.82142e-05, No Iterations 1
DILUPBiCG:  Solving for Uy, Initial residual = 0.00157713, Final residual = 6.40072e-06, No Iterations 1
DILUPBiCG:  Solving for Uz, Initial residual = 0.00292134, Final residual = 8.50204e-06, No Iterations 1
GAMG:  Solving for p, Initial residual = 0.0465901, Final residual = 0.000329843, No Iterations 6
GAMG:  Solving for p, Initial residual = 0.00997052, Final residual = 9.81771e-05, No Iterations 14
GAMG:  Solving for p, Initial residual = 0.00373111, Final residual = 3.5614e-05, No Iterations 12
time step continuity errors : sum local = 3.46027e-07, global = 9.97041e-08, cumulative = -2.91566e-07
GAMG:  Solving for p, Initial residual = 0.0243717, Final residual = 0.000218605, No Iterations 5
GAMG:  Solving for p, Initial residual = 0.00482099, Final residual = 4.1706e-05, No Iterations 13
GAMG:  Solving for p, Initial residual = 0.00170868, Final residual = 1.68686e-05, No Iterations 12
time step continuity errors : sum local = 1.6498e-07, global = 4.743e-08, cumulative = -2.44136e-07
PIMPLE: iteration 3
DILUPBiCG:  Solving for Ux, Initial residual = 0.00221613, Final residual = 8.79852e-07, No Iterations 2
DILUPBiCG:  Solving for Uy, Initial residual = 0.000361229, Final residual = 9.69796e-06, No Iterations 1
DILUPBiCG:  Solving for Uz, Initial residual = 0.00596186, Final residual = 5.25977e-06, No Iterations 2
GAMG:  Solving for p, Initial residual = 0.0436001, Final residual = 0.000379193, No Iterations 5
GAMG:  Solving for p, Initial residual = 0.0115691, Final residual = 0.000107334, No Iterations 10
GAMG:  Solving for p, Initial residual = 0.00496814, Final residual = 4.1932e-05, No Iterations 12
time step continuity errors : sum local = 4.56047e-07, global = 1.33108e-07, cumulative = -1.11028e-07
GAMG:  Solving for p, Initial residual = 0.00296748, Final residual = 2.72466e-05, No Iterations 18
GAMG:  Solving for p, Initial residual = 0.00180371, Final residual = 1.42856e-05, No Iterations 4
GAMG:  Solving for p, Initial residual = 0.00062028, Final residual = 9.35194e-07, No Iterations 38
time step continuity errors : sum local = 1.01452e-08, global = -2.9938e-09, cumulative = -1.14022e-07
DILUPBiCG:  Solving for omega, Initial residual = 0.00107579, Final residual = 1.25754e-06, No Iterations 1
DILUPBiCG:  Solving for k, Initial residual = 0.00628031, Final residual = 1.38839e-06, No Iterations 2
ExecutionTime = 73.35 s  ClockTime = 74 s

Courant Number mean: 0.254789 max: 0.558657
Time = 0.439

GAMG:  Solving for cellDisplacementx, Initial residual = 0, Final residual = 0, No Iterations 0
GAMG:  Solving for cellDisplacementy, Initial residual = 0, Final residual = 0, No Iterations 0
GAMG:  Solving for cellDisplacementz, Initial residual = 0, Final residual = 0, No Iterations 0
PIMPLE: iteration 1
DILUPBiCG:  Solving for Ux, Initial residual = 0.0323609, Final residual = 0.000106923, No Iterations 1
DILUPBiCG:  Solving for Uy, Initial residual = 0.0050547, Final residual = 1.30497e-05, No Iterations 1
DILUPBiCG:  Solving for Uz, Initial residual = 0.0116963, Final residual = 1.98661e-05, No Iterations 1
GAMG:  Solving for p, Initial residual = 0.105889, Final residual = 0.000995595, No Iterations 4
GAMG:  Solving for p, Initial residual = 0.0137757, Final residual = 0.000129608, No Iterations 18
GAMG:  Solving for p, Initial residual = 0.00627273, Final residual = 5.86178e-05, No Iterations 10
time step continuity errors : sum local = 6.39691e-07, global = -1.65637e-07, cumulative = -2.79659e-07
GAMG:  Solving for p, Initial residual = 0.0469277, Final residual = 0.000373643, No Iterations 4
GAMG:  Solving for p, Initial residual = 0.00675408, Final residual = 6.3791e-05, No Iterations 16
GAMG:  Solving for p, Initial residual = 0.00313923, Final residual = 3.13793e-05, No Iterations 10
time step continuity errors : sum local = 3.42551e-07, global = -9.03183e-08, cumulative = -3.69977e-07
PIMPLE: iteration 2
DILUPBiCG:  Solving for Ux, Initial residual = 0.00910475, Final residual = 3.53926e-05, No Iterations 1
DILUPBiCG:  Solving for Uy, Initial residual = 0.00146166, Final residual = 6.31273e-06, No Iterations 1
DILUPBiCG:  Solving for Uz, Initial residual = 0.00306573, Final residual = 8.55377e-06, No Iterations 1
GAMG:  Solving for p, Initial residual = 0.0461851, Final residual = 0.000331944, No Iterations 6
GAMG:  Solving for p, Initial residual = 0.0102781, Final residual = 9.57665e-05, No Iterations 14
GAMG:  Solving for p, Initial residual = 0.00376379, Final residual = 3.65875e-05, No Iterations 12
time step continuity errors : sum local = 3.3839e-07, global = 9.75278e-08, cumulative = -2.72449e-07
GAMG:  Solving for p, Initial residual = 0.0240866, Final residual = 0.000223935, No Iterations 5
GAMG:  Solving for p, Initial residual = 0.00489269, Final residual = 4.77133e-05, No Iterations 11
GAMG:  Solving for p, Initial residual = 0.00173967, Final residual = 1.5946e-05, No Iterations 14
time step continuity errors : sum local = 1.48618e-07, global = 4.59139e-08, cumulative = -2.26535e-07
PIMPLE: iteration 3
DILUPBiCG:  Solving for Ux, Initial residual = 0.00204326, Final residual = 7.86465e-07, No Iterations 2
DILUPBiCG:  Solving for Uy, Initial residual = 0.000334587, Final residual = 9.15272e-06, No Iterations 1
DILUPBiCG:  Solving for Uz, Initial residual = 0.00632976, Final residual = 2.83694e-06, No Iterations 2
GAMG:  Solving for p, Initial residual = 0.0443088, Final residual = 0.000374682, No Iterations 5
GAMG:  Solving for p, Initial residual = 0.0117759, Final residual = 0.000102086, No Iterations 10
GAMG:  Solving for p, Initial residual = 0.00504546, Final residual = 4.71408e-05, No Iterations 10
time step continuity errors : sum local = 4.8721e-07, global = 1.2657e-07, cumulative = -9.99651e-08
GAMG:  Solving for p, Initial residual = 0.00303328, Final residual = 2.73173e-05, No Iterations 18
GAMG:  Solving for p, Initial residual = 0.00184831, Final residual = 1.38249e-05, No Iterations 4
GAMG:  Solving for p, Initial residual = 0.00063831, Final residual = 8.9073e-07, No Iterations 38
time step continuity errors : sum local = 9.18601e-09, global = -2.71071e-09, cumulative = -1.02676e-07
DILUPBiCG:  Solving for omega, Initial residual = 0.00110311, Final residual = 1.30815e-06, No Iterations 1
DILUPBiCG:  Solving for k, Initial residual = 0.00634764, Final residual = 1.38285e-06, No Iterations 2
ExecutionTime = 82 s  ClockTime = 82 s

Courant Number mean: 0.25863 max: 0.567184
Time = 0.44

GAMG:  Solving for cellDisplacementx, Initial residual = 0, Final residual = 0, No Iterations 0
GAMG:  Solving for cellDisplacementy, Initial residual = 0, Final residual = 0, No Iterations 0
GAMG:  Solving for cellDisplacementz, Initial residual = 0, Final residual = 0, No Iterations 0
PIMPLE: iteration 1
DILUPBiCG:  Solving for Ux, Initial residual = 0.0299023, Final residual = 9.96522e-05, No Iterations 1
DILUPBiCG:  Solving for Uy, Initial residual = 0.00465957, Final residual = 1.2342e-05, No Iterations 1
DILUPBiCG:  Solving for Uz, Initial residual = 0.0116077, Final residual = 1.95505e-05, No Iterations 1
GAMG:  Solving for p, Initial residual = 0.104539, Final residual = 0.000882311, No Iterations 4
GAMG:  Solving for p, Initial residual = 0.0136222, Final residual = 0.000132771, No Iterations 16
GAMG:  Solving for p, Initial residual = 0.00610908, Final residual = 5.88862e-05, No Iterations 10
time step continuity errors : sum local = 6.05273e-07, global = -1.60404e-07, cumulative = -2.6308e-07
GAMG:  Solving for p, Initial residual = 0.0464946, Final residual = 0.000336232, No Iterations 4
GAMG:  Solving for p, Initial residual = 0.00664757, Final residual = 6.50684e-05, No Iterations 14
GAMG:  Solving for p, Initial residual = 0.00302159, Final residual = 2.54655e-05, No Iterations 12
time step continuity errors : sum local = 2.6187e-07, global = -7.84573e-08, cumulative = -3.41538e-07
PIMPLE: iteration 2
DILUPBiCG:  Solving for Ux, Initial residual = 0.00838502, Final residual = 3.26031e-05, No Iterations 1
DILUPBiCG:  Solving for Uy, Initial residual = 0.0013448, Final residual = 6.24486e-06, No Iterations 1
DILUPBiCG:  Solving for Uz, Initial residual = 0.00291358, Final residual = 8.50582e-06, No Iterations 1
GAMG:  Solving for p, Initial residual = 0.0456228, Final residual = 0.000335027, No Iterations 6
GAMG:  Solving for p, Initial residual = 0.0105858, Final residual = 9.9822e-05, No Iterations 14
GAMG:  Solving for p, Initial residual = 0.00387848, Final residual = 3.7451e-05, No Iterations 12
time step continuity errors : sum local = 3.26076e-07, global = 9.43108e-08, cumulative = -2.47227e-07
GAMG:  Solving for p, Initial residual = 0.0239803, Final residual = 0.000220556, No Iterations 5
GAMG:  Solving for p, Initial residual = 0.00511553, Final residual = 4.99839e-05, No Iterations 11
GAMG:  Solving for p, Initial residual = 0.00173567, Final residual = 1.71958e-05, No Iterations 14
time step continuity errors : sum local = 1.5083e-07, global = 4.60057e-08, cumulative = -2.01221e-07
PIMPLE: iteration 3
DILUPBiCG:  Solving for Ux, Initial residual = 0.00185237, Final residual = 6.74857e-07, No Iterations 2
DILUPBiCG:  Solving for Uy, Initial residual = 0.000302353, Final residual = 9.43898e-06, No Iterations 1
DILUPBiCG:  Solving for Uz, Initial residual = 0.00532507, Final residual = 7.15564e-08, No Iterations 3
GAMG:  Solving for p, Initial residual = 0.0450755, Final residual = 0.000382578, No Iterations 5
GAMG:  Solving for p, Initial residual = 0.012174, Final residual = 0.000119799, No Iterations 10
GAMG:  Solving for p, Initial residual = 0.00521867, Final residual = 4.82446e-05, No Iterations 12
time step continuity errors : sum local = 4.69441e-07, global = 1.38473e-07, cumulative = -6.27478e-08
GAMG:  Solving for p, Initial residual = 0.00316897, Final residual = 3.09156e-05, No Iterations 16
GAMG:  Solving for p, Initial residual = 0.00190381, Final residual = 1.67732e-05, No Iterations 4
GAMG:  Solving for p, Initial residual = 0.000648876, Final residual = 9.65646e-07, No Iterations 40
time step continuity errors : sum local = 9.36463e-09, global = -2.77359e-09, cumulative = -6.55214e-08
DILUPBiCG:  Solving for omega, Initial residual = 0.0011283, Final residual = 1.35824e-06, No Iterations 1
DILUPBiCG:  Solving for k, Initial residual = 0.00638733, Final residual = 1.34427e-06, No Iterations 2
ExecutionTime = 90.96 s  ClockTime = 91 s

End

