/*---------------------------------------------------------------------------*\
| =========                 |                                                 |
| \\      /  F ield         | OpenFOAM: The Open Source CFD Toolbox           |
|  \\    /   O peration     | Version:  2.3.1                                 |
|   \\  /    A nd           | Web:      www.OpenFOAM.org                      |
|    \\/     M anipulation  |                                                 |
\*---------------------------------------------------------------------------*/
Build  : 2.3.1-262087cdf8db
Exec   : linearisedPimpleDyMFoam
Date   : Jun 05 2023
Time   : 23:58:17
Host   : "jcosson-VirtualBox"
PID    : 21288
Case   : /home/jcosson/workspace/henersj_shootingdata/calcs/moderate_deformed/primal/100_intervals_05-06-23/sweep9/interval39
nProcs : 1
sigFpe : Enabling floating point exception trapping (FOAM_SIGFPE).
fileModificationChecking : Monitoring run-time modified files using timeStampMaster
allowSystemOperations : Allowing user-supplied system call operations

// * * * * * * * * * * * * * * * * * * * * * * * * * * * * * * * * * * * * * //
Create time

Create mesh for time = 0.438

Selecting dynamicFvMesh dynamicMotionSolverFvMesh
Selecting motion solver: displacementLaplacian
Selecting motion diffusion: quadratic
Selecting motion diffusion: quadratic
Selecting motion diffusion: inverseDistance
Reading field linP

Reading field linU

starte createPhia.H

Reading/calculating face flux field linPhi

Adjungierte Interpolation durchgefuehrt

createPhia.H verlassen

setRefCell ausgefuehrt

No finite volume options present


PIMPLE: no residual control data found. Calculations will employ 3 corrector loops


Starting time loop

Time = 0.439

Reading field p

Reading field U

Read primal fluxes 

Reading primal face flux fields phi/meshPhi

Created primal fluxes 

Selecting incompressible transport model Newtonian
singlePhaseTransportModel gewaehlt 

Selecting turbulence model type RASModel
Selecting RAS turbulence model kOmegaSST
kOmegaSSTCoeffs
{
    alphaK1         0.85034;
    alphaK2         1;
    alphaOmega1     0.5;
    alphaOmega2     0.85616;
    gamma1          0.5532;
    gamma2          0.4403;
    beta1           0.075;
    beta2           0.0828;
    betaStar        0.09;
    a1              0.31;
    c1              10;
    Cmu             0.09;
    b1              1;
    F3              false;
}

autoPtr ausgefuehrt

Reading/calculating face velocity Uf

Init adjoint face velocity linUf

Courant Number mean: 0.258372 max: 0.57296
Adjoint Courant Number mean: 0.000159692 max: 0.00544004
GAMG:  Solving for cellDisplacementx, Initial residual = 0, Final residual = 0, No Iterations 0
GAMG:  Solving for cellDisplacementy, Initial residual = 0, Final residual = 0, No Iterations 0
GAMG:  Solving for cellDisplacementz, Initial residual = 0, Final residual = 0, No Iterations 0
PIMPLE: iteration 1
DILUPBiCG:  Solving for linUx, Initial residual = 0.0780398, Final residual = 0.00019964, No Iterations 1
DILUPBiCG:  Solving for linUy, Initial residual = 0.152253, Final residual = 0.000268863, No Iterations 1
DILUPBiCG:  Solving for linUz, Initial residual = 0.163037, Final residual = 0.000343478, No Iterations 1
GAMG:  Solving for linP, Initial residual = 1, Final residual = 0.00324792, No Iterations 3
GAMG:  Solving for linP, Initial residual = 0.0186347, Final residual = 7.3277e-05, No Iterations 5
GAMG:  Solving for linP, Initial residual = 0.00607046, Final residual = 3.15717e-05, No Iterations 4
Adjoint continuity errors : sum local = 1.6053e-08, global = -2.24351e-09, cumulative = -2.24351e-09
GAMG:  Solving for linP, Initial residual = 0.0346922, Final residual = 0.000249169, No Iterations 3
GAMG:  Solving for linP, Initial residual = 0.00481543, Final residual = 2.80102e-05, No Iterations 4
GAMG:  Solving for linP, Initial residual = 0.00163549, Final residual = 1.30026e-05, No Iterations 4
Adjoint continuity errors : sum local = 6.37438e-09, global = -1.02828e-09, cumulative = -3.27179e-09
PIMPLE: iteration 2
DILUPBiCG:  Solving for linUx, Initial residual = 0.0174865, Final residual = 5.75768e-05, No Iterations 1
DILUPBiCG:  Solving for linUy, Initial residual = 0.031635, Final residual = 7.5117e-05, No Iterations 1
DILUPBiCG:  Solving for linUz, Initial residual = 0.0379343, Final residual = 0.000109257, No Iterations 1
GAMG:  Solving for linP, Initial residual = 0.0458543, Final residual = 0.000195975, No Iterations 3
GAMG:  Solving for linP, Initial residual = 0.00328936, Final residual = 2.06202e-05, No Iterations 4
GAMG:  Solving for linP, Initial residual = 0.00102279, Final residual = 5.94376e-06, No Iterations 4
Adjoint continuity errors : sum local = 2.95487e-09, global = 6.4587e-10, cumulative = -2.62592e-09
GAMG:  Solving for linP, Initial residual = 0.00330945, Final residual = 3.18599e-05, No Iterations 3
GAMG:  Solving for linP, Initial residual = 0.000677144, Final residual = 3.7249e-06, No Iterations 4
GAMG:  Solving for linP, Initial residual = 0.000219775, Final residual = 1.09401e-06, No Iterations 4
Adjoint continuity errors : sum local = 5.43964e-10, global = -6.35779e-11, cumulative = -2.6895e-09
PIMPLE: iteration 3
DILUPBiCG:  Solving for linUx, Initial residual = 0.00279418, Final residual = 7.88191e-08, No Iterations 2
DILUPBiCG:  Solving for linUy, Initial residual = 0.00473453, Final residual = 8.43647e-08, No Iterations 2
DILUPBiCG:  Solving for linUz, Initial residual = 0.00424189, Final residual = 1.37353e-07, No Iterations 2
GAMG:  Solving for linP, Initial residual = 0.0436773, Final residual = 0.000388082, No Iterations 2
GAMG:  Solving for linP, Initial residual = 0.00155933, Final residual = 7.61651e-06, No Iterations 5
GAMG:  Solving for linP, Initial residual = 0.000690029, Final residual = 4.18413e-06, No Iterations 4
Adjoint continuity errors : sum local = 2.12718e-09, global = 2.24435e-10, cumulative = -2.46507e-09
GAMG:  Solving for linP, Initial residual = 0.00224266, Final residual = 2.18677e-05, No Iterations 2
GAMG:  Solving for linP, Initial residual = 0.000184321, Final residual = 1.45498e-06, No Iterations 4
GAMG:  Solving for linP, Initial residual = 8.26702e-05, Final residual = 7.8853e-07, No Iterations 3
Adjoint continuity errors : sum local = 4.02021e-10, global = 2.84945e-11, cumulative = -2.43657e-09
ExecutionTime = 8.03 s  ClockTime = 8 s

End

