/*---------------------------------------------------------------------------*\
| =========                 |                                                 |
| \\      /  F ield         | OpenFOAM: The Open Source CFD Toolbox           |
|  \\    /   O peration     | Version:  2.3.1                                 |
|   \\  /    A nd           | Web:      www.OpenFOAM.org                      |
|    \\/     M anipulation  |                                                 |
\*---------------------------------------------------------------------------*/
Build  : 2.3.1-262087cdf8db
Exec   : pimpleDyMFoam
Date   : Jun 05 2023
Time   : 23:56:29
Host   : "jcosson-VirtualBox"
PID    : 19581
Case   : /home/jcosson/workspace/henersj_shootingdata/calcs/moderate_deformed/primal/100_intervals_05-06-23/sweep9/interval73
nProcs : 1
sigFpe : Enabling floating point exception trapping (FOAM_SIGFPE).
fileModificationChecking : Monitoring run-time modified files using timeStampMaster
allowSystemOperations : Allowing user-supplied system call operations

// * * * * * * * * * * * * * * * * * * * * * * * * * * * * * * * * * * * * * //
Create time

Create mesh for time = 0.472

Selecting dynamicFvMesh dynamicMotionSolverFvMesh
Selecting motion solver: displacementLaplacian
Selecting motion diffusion: quadratic
Selecting motion diffusion: quadratic
Selecting motion diffusion: inverseDistance

PIMPLE: no residual control data found. Calculations will employ 3 corrector loops

Reading field p

Reading field U

Reading/calculating face flux field phi

Selecting incompressible transport model Newtonian
Selecting turbulence model type RASModel
Selecting RAS turbulence model kOmegaSST
kOmegaSSTCoeffs
{
    alphaK1         0.85034;
    alphaK2         1;
    alphaOmega1     0.5;
    alphaOmega2     0.85616;
    gamma1          0.5532;
    gamma2          0.4403;
    beta1           0.075;
    beta2           0.0828;
    betaStar        0.09;
    a1              0.31;
    c1              10;
    Cmu             0.09;
    b1              1;
    F3              false;
}

Reading/calculating face velocity Uf

No finite volume options present

Courant Number mean: 0.205828 max: 0.459614

Starting time loop

Courant Number mean: 0.205828 max: 0.459614
Time = 0.473

GAMG:  Solving for cellDisplacementx, Initial residual = 0, Final residual = 0, No Iterations 0
GAMG:  Solving for cellDisplacementy, Initial residual = 0, Final residual = 0, No Iterations 0
GAMG:  Solving for cellDisplacementz, Initial residual = 0, Final residual = 0, No Iterations 0
PIMPLE: iteration 1
DILUPBiCG:  Solving for Ux, Initial residual = 0.0534856, Final residual = 0.000217457, No Iterations 1
DILUPBiCG:  Solving for Uy, Initial residual = 0.00884732, Final residual = 2.07953e-05, No Iterations 1
DILUPBiCG:  Solving for Uz, Initial residual = 0.0192606, Final residual = 3.21796e-05, No Iterations 1
GAMG:  Solving for p, Initial residual = 0.131281, Final residual = 0.000983566, No Iterations 6
GAMG:  Solving for p, Initial residual = 0.0158127, Final residual = 0.000142653, No Iterations 18
GAMG:  Solving for p, Initial residual = 0.00686848, Final residual = 6.7492e-05, No Iterations 10
time step continuity errors : sum local = 9.82903e-07, global = 2.59654e-07, cumulative = 2.59654e-07
GAMG:  Solving for p, Initial residual = 0.0557188, Final residual = 0.000530808, No Iterations 4
GAMG:  Solving for p, Initial residual = 0.00793584, Final residual = 6.84832e-05, No Iterations 18
GAMG:  Solving for p, Initial residual = 0.003631, Final residual = 3.28653e-05, No Iterations 10
time step continuity errors : sum local = 4.77956e-07, global = 1.26931e-07, cumulative = 3.86585e-07
PIMPLE: iteration 2
DILUPBiCG:  Solving for Ux, Initial residual = 0.0153839, Final residual = 9.07636e-05, No Iterations 1
DILUPBiCG:  Solving for Uy, Initial residual = 0.00269882, Final residual = 6.31616e-06, No Iterations 1
DILUPBiCG:  Solving for Uz, Initial residual = 0.00422419, Final residual = 1.62559e-05, No Iterations 1
GAMG:  Solving for p, Initial residual = 0.0561932, Final residual = 0.00048348, No Iterations 4
GAMG:  Solving for p, Initial residual = 0.00930914, Final residual = 8.47102e-05, No Iterations 16
GAMG:  Solving for p, Initial residual = 0.0041648, Final residual = 3.60552e-05, No Iterations 10
time step continuity errors : sum local = 4.45882e-07, global = -1.14521e-07, cumulative = 2.72063e-07
GAMG:  Solving for p, Initial residual = 0.0289182, Final residual = 0.000212312, No Iterations 4
GAMG:  Solving for p, Initial residual = 0.00461247, Final residual = 3.92924e-05, No Iterations 14
GAMG:  Solving for p, Initial residual = 0.00197791, Final residual = 1.74223e-05, No Iterations 10
time step continuity errors : sum local = 2.16526e-07, global = -5.53954e-08, cumulative = 2.16668e-07
PIMPLE: iteration 3
DILUPBiCG:  Solving for Ux, Initial residual = 0.00373299, Final residual = 2.1318e-06, No Iterations 2
DILUPBiCG:  Solving for Uy, Initial residual = 0.000673692, Final residual = 6.62332e-06, No Iterations 1
DILUPBiCG:  Solving for Uz, Initial residual = 0.00637374, Final residual = 3.53448e-06, No Iterations 2
GAMG:  Solving for p, Initial residual = 0.0397276, Final residual = 0.000362939, No Iterations 5
GAMG:  Solving for p, Initial residual = 0.0091116, Final residual = 7.72082e-05, No Iterations 13
GAMG:  Solving for p, Initial residual = 0.00435327, Final residual = 4.14713e-05, No Iterations 8
time step continuity errors : sum local = 5.76751e-07, global = -1.29699e-07, cumulative = 8.69685e-08
GAMG:  Solving for p, Initial residual = 0.00246474, Final residual = 2.37148e-05, No Iterations 18
GAMG:  Solving for p, Initial residual = 0.001356, Final residual = 1.23827e-05, No Iterations 4
GAMG:  Solving for p, Initial residual = 0.000540059, Final residual = 9.1626e-07, No Iterations 36
time step continuity errors : sum local = 1.2683e-08, global = 3.73046e-09, cumulative = 9.0699e-08
DILUPBiCG:  Solving for omega, Initial residual = 0.000869368, Final residual = 1.40789e-06, No Iterations 1
DILUPBiCG:  Solving for k, Initial residual = 0.00461903, Final residual = 1.67163e-06, No Iterations 2
ExecutionTime = 16.96 s  ClockTime = 17 s

End

