/*---------------------------------------------------------------------------*\
| =========                 |                                                 |
| \\      /  F ield         | OpenFOAM: The Open Source CFD Toolbox           |
|  \\    /   O peration     | Version:  2.3.1                                 |
|   \\  /    A nd           | Web:      www.OpenFOAM.org                      |
|    \\/     M anipulation  |                                                 |
\*---------------------------------------------------------------------------*/
Build  : 2.3.1-262087cdf8db
Exec   : linearisedPimpleDyMFoam
Date   : Jun 06 2023
Time   : 03:04:27
Host   : "jcosson-VirtualBox"
PID    : 17916
Case   : /home/jcosson/workspace/henersj_shootingdata/calcs/moderate_deformed/primal/100_intervals_05-06-23/sweep89/interval100
nProcs : 1
sigFpe : Enabling floating point exception trapping (FOAM_SIGFPE).
fileModificationChecking : Monitoring run-time modified files using timeStampMaster
allowSystemOperations : Allowing user-supplied system call operations

// * * * * * * * * * * * * * * * * * * * * * * * * * * * * * * * * * * * * * //
Create time

Create mesh for time = 0.499

Selecting dynamicFvMesh dynamicMotionSolverFvMesh
Selecting motion solver: displacementLaplacian
Selecting motion diffusion: quadratic
Selecting motion diffusion: quadratic
Selecting motion diffusion: inverseDistance
Reading field linP

Reading field linU

starte createPhia.H

Reading/calculating face flux field linPhi

Adjungierte Interpolation durchgefuehrt

createPhia.H verlassen

setRefCell ausgefuehrt

No finite volume options present


PIMPLE: no residual control data found. Calculations will employ 3 corrector loops


Starting time loop

Time = 0.5

Reading field p

Reading field U

Read primal fluxes 

Reading primal face flux fields phi/meshPhi

Created primal fluxes 

Selecting incompressible transport model Newtonian
singlePhaseTransportModel gewaehlt 

Selecting turbulence model type RASModel
Selecting RAS turbulence model kOmegaSST
bounding k, min: 0 max: 0.000496543 average: 0.000141604
kOmegaSSTCoeffs
{
    alphaK1         0.85034;
    alphaK2         1;
    alphaOmega1     0.5;
    alphaOmega2     0.85616;
    gamma1          0.5532;
    gamma2          0.4403;
    beta1           0.075;
    beta2           0.0828;
    betaStar        0.09;
    a1              0.31;
    c1              10;
    Cmu             0.09;
    b1              1;
    F3              false;
}

autoPtr ausgefuehrt

Reading/calculating face velocity Uf

Init adjoint face velocity linUf

Courant Number mean: 0.0982707 max: 0.213142
Adjoint Courant Number mean: 7.47289e-05 max: 0.00195845
GAMG:  Solving for cellDisplacementx, Initial residual = 0, Final residual = 0, No Iterations 0
GAMG:  Solving for cellDisplacementy, Initial residual = 0, Final residual = 0, No Iterations 0
GAMG:  Solving for cellDisplacementz, Initial residual = 0, Final residual = 0, No Iterations 0
PIMPLE: iteration 1
DILUPBiCG:  Solving for linUx, Initial residual = 0.00966504, Final residual = 2.61416e-05, No Iterations 1
DILUPBiCG:  Solving for linUy, Initial residual = 0.020247, Final residual = 2.8668e-05, No Iterations 1
DILUPBiCG:  Solving for linUz, Initial residual = 0.0441365, Final residual = 8.31763e-05, No Iterations 1
GAMG:  Solving for linP, Initial residual = 1, Final residual = 0.00625703, No Iterations 3
GAMG:  Solving for linP, Initial residual = 0.0391341, Final residual = 0.00025331, No Iterations 4
GAMG:  Solving for linP, Initial residual = 0.0134583, Final residual = 9.56159e-05, No Iterations 4
Adjoint continuity errors : sum local = 2.03462e-09, global = 1.92801e-10, cumulative = 1.92801e-10
GAMG:  Solving for linP, Initial residual = 0.0198894, Final residual = 0.000123407, No Iterations 4
GAMG:  Solving for linP, Initial residual = 0.00625269, Final residual = 3.10346e-05, No Iterations 4
GAMG:  Solving for linP, Initial residual = 0.00230404, Final residual = 1.27247e-05, No Iterations 4
Adjoint continuity errors : sum local = 2.66746e-10, global = 7.80497e-13, cumulative = 1.93582e-10
PIMPLE: iteration 2
DILUPBiCG:  Solving for linUx, Initial residual = 0.00117561, Final residual = 3.17707e-05, No Iterations 1
DILUPBiCG:  Solving for linUy, Initial residual = 0.00282782, Final residual = 5.79263e-06, No Iterations 1
DILUPBiCG:  Solving for linUz, Initial residual = 0.003663, Final residual = 7.1175e-06, No Iterations 1
GAMG:  Solving for linP, Initial residual = 0.028107, Final residual = 0.000179744, No Iterations 3
GAMG:  Solving for linP, Initial residual = 0.00442879, Final residual = 1.85447e-05, No Iterations 4
GAMG:  Solving for linP, Initial residual = 0.00143688, Final residual = 8.36536e-06, No Iterations 4
Adjoint continuity errors : sum local = 1.77518e-10, global = -1.90081e-11, cumulative = 1.74574e-10
GAMG:  Solving for linP, Initial residual = 0.00133705, Final residual = 8.6625e-06, No Iterations 4
GAMG:  Solving for linP, Initial residual = 0.000542104, Final residual = 4.88683e-06, No Iterations 4
GAMG:  Solving for linP, Initial residual = 0.00020495, Final residual = 1.14078e-06, No Iterations 4
Adjoint continuity errors : sum local = 2.41945e-11, global = 1.52587e-12, cumulative = 1.761e-10
PIMPLE: iteration 3
DILUPBiCG:  Solving for linUx, Initial residual = 0.0001043, Final residual = 6.03794e-07, No Iterations 1
DILUPBiCG:  Solving for linUy, Initial residual = 0.000219365, Final residual = 1.30269e-06, No Iterations 1
DILUPBiCG:  Solving for linUz, Initial residual = 0.000265597, Final residual = 9.24673e-08, No Iterations 2
GAMG:  Solving for linP, Initial residual = 0.0358521, Final residual = 0.000346812, No Iterations 2
GAMG:  Solving for linP, Initial residual = 0.00298487, Final residual = 1.6571e-05, No Iterations 4
GAMG:  Solving for linP, Initial residual = 0.00117745, Final residual = 5.80903e-06, No Iterations 4
Adjoint continuity errors : sum local = 1.28447e-10, global = -2.5529e-11, cumulative = 1.50571e-10
GAMG:  Solving for linP, Initial residual = 0.00099104, Final residual = 5.76617e-06, No Iterations 3
GAMG:  Solving for linP, Initial residual = 0.000249757, Final residual = 1.37928e-06, No Iterations 4
GAMG:  Solving for linP, Initial residual = 0.000104576, Final residual = 4.7337e-07, No Iterations 4
Adjoint continuity errors : sum local = 1.04737e-11, global = 7.64066e-13, cumulative = 1.51335e-10
ExecutionTime = 9.54 s  ClockTime = 9 s

End

