/*---------------------------------------------------------------------------*\
| =========                 |                                                 |
| \\      /  F ield         | OpenFOAM: The Open Source CFD Toolbox           |
|  \\    /   O peration     | Version:  2.3.1                                 |
|   \\  /    A nd           | Web:      www.OpenFOAM.org                      |
|    \\/     M anipulation  |                                                 |
\*---------------------------------------------------------------------------*/
Build  : 2.3.1-262087cdf8db
Exec   : linearisedPimpleDyMFoam
Date   : Jun 05 2023
Time   : 14:39:37
Host   : "jcosson-VirtualBox"
PID    : 8545
Case   : /home/jcosson/workspace/henersj_shootingdata/calcs/moderate_deformed/primal/10_intervals_05-06-23/sweep2/interval5
nProcs : 1
sigFpe : Enabling floating point exception trapping (FOAM_SIGFPE).
fileModificationChecking : Monitoring run-time modified files using timeStampMaster
allowSystemOperations : Allowing user-supplied system call operations

// * * * * * * * * * * * * * * * * * * * * * * * * * * * * * * * * * * * * * //
Create time

Create mesh for time = 0.44

Selecting dynamicFvMesh dynamicMotionSolverFvMesh
Selecting motion solver: displacementLaplacian
Selecting motion diffusion: quadratic
Selecting motion diffusion: quadratic
Selecting motion diffusion: inverseDistance
Reading field linP

Reading field linU

starte createPhia.H

Reading/calculating face flux field linPhi

Adjungierte Interpolation durchgefuehrt

createPhia.H verlassen

setRefCell ausgefuehrt

No finite volume options present


PIMPLE: no residual control data found. Calculations will employ 3 corrector loops


Starting time loop

Time = 0.441

Reading field p

Reading field U

Read primal fluxes 

Reading primal face flux fields phi/meshPhi

Created primal fluxes 

Selecting incompressible transport model Newtonian
singlePhaseTransportModel gewaehlt 

Selecting turbulence model type RASModel
Selecting RAS turbulence model kOmegaSST
kOmegaSSTCoeffs
{
    alphaK1         0.85034;
    alphaK2         1;
    alphaOmega1     0.5;
    alphaOmega2     0.85616;
    gamma1          0.5532;
    gamma2          0.4403;
    beta1           0.075;
    beta2           0.0828;
    betaStar        0.09;
    a1              0.31;
    c1              10;
    Cmu             0.09;
    b1              1;
    F3              false;
}

autoPtr ausgefuehrt

Reading/calculating face velocity Uf

Init adjoint face velocity linUf

Courant Number mean: 0.265211 max: 0.588071
Adjoint Courant Number mean: 0.00194036 max: 0.0569754
GAMG:  Solving for cellDisplacementx, Initial residual = 0, Final residual = 0, No Iterations 0
GAMG:  Solving for cellDisplacementy, Initial residual = 0, Final residual = 0, No Iterations 0
GAMG:  Solving for cellDisplacementz, Initial residual = 0, Final residual = 0, No Iterations 0
PIMPLE: iteration 1
DILUPBiCG:  Solving for linUx, Initial residual = 0.0596722, Final residual = 0.000178308, No Iterations 1
DILUPBiCG:  Solving for linUy, Initial residual = 0.11668, Final residual = 0.000264436, No Iterations 1
DILUPBiCG:  Solving for linUz, Initial residual = 0.136997, Final residual = 0.00031626, No Iterations 1
GAMG:  Solving for linP, Initial residual = 1, Final residual = 0.00921265, No Iterations 2
GAMG:  Solving for linP, Initial residual = 0.010358, Final residual = 6.9872e-05, No Iterations 4
GAMG:  Solving for linP, Initial residual = 0.0035957, Final residual = 3.12664e-05, No Iterations 4
Adjoint continuity errors : sum local = 1.44799e-07, global = -2.41718e-08, cumulative = -2.41718e-08
GAMG:  Solving for linP, Initial residual = 0.0354865, Final residual = 0.000166, No Iterations 3
GAMG:  Solving for linP, Initial residual = 0.00293145, Final residual = 1.38271e-05, No Iterations 4
GAMG:  Solving for linP, Initial residual = 0.000877424, Final residual = 5.03213e-06, No Iterations 4
Adjoint continuity errors : sum local = 2.23927e-08, global = 2.85735e-09, cumulative = -2.13145e-08
PIMPLE: iteration 2
DILUPBiCG:  Solving for linUx, Initial residual = 0.00904294, Final residual = 2.84533e-05, No Iterations 1
DILUPBiCG:  Solving for linUy, Initial residual = 0.0184667, Final residual = 4.08985e-05, No Iterations 1
DILUPBiCG:  Solving for linUz, Initial residual = 0.018855, Final residual = 4.11179e-05, No Iterations 1
GAMG:  Solving for linP, Initial residual = 0.0536675, Final residual = 0.000496562, No Iterations 2
GAMG:  Solving for linP, Initial residual = 0.00197411, Final residual = 1.44186e-05, No Iterations 4
GAMG:  Solving for linP, Initial residual = 0.000702912, Final residual = 6.95598e-06, No Iterations 4
Adjoint continuity errors : sum local = 3.14961e-08, global = 4.84686e-10, cumulative = -2.08298e-08
GAMG:  Solving for linP, Initial residual = 0.00343769, Final residual = 1.61202e-05, No Iterations 3
GAMG:  Solving for linP, Initial residual = 0.00035537, Final residual = 2.43921e-06, No Iterations 4
GAMG:  Solving for linP, Initial residual = 0.000113206, Final residual = 9.08732e-07, No Iterations 4
Adjoint continuity errors : sum local = 4.11539e-09, global = -9.51041e-10, cumulative = -2.17808e-08
PIMPLE: iteration 3
DILUPBiCG:  Solving for linUx, Initial residual = 0.00180951, Final residual = 6.87896e-08, No Iterations 2
DILUPBiCG:  Solving for linUy, Initial residual = 0.00396032, Final residual = 9.29092e-08, No Iterations 2
DILUPBiCG:  Solving for linUz, Initial residual = 0.00329287, Final residual = 1.09838e-07, No Iterations 2
GAMG:  Solving for linP, Initial residual = 0.0454655, Final residual = 0.000405249, No Iterations 2
GAMG:  Solving for linP, Initial residual = 0.00129861, Final residual = 7.61827e-06, No Iterations 4
GAMG:  Solving for linP, Initial residual = 0.000433633, Final residual = 3.57487e-06, No Iterations 3
Adjoint continuity errors : sum local = 1.65198e-08, global = -3.27979e-09, cumulative = -2.50606e-08
GAMG:  Solving for linP, Initial residual = 0.00240536, Final residual = 2.38311e-05, No Iterations 2
GAMG:  Solving for linP, Initial residual = 0.000156989, Final residual = 1.01522e-06, No Iterations 4
GAMG:  Solving for linP, Initial residual = 6.22678e-05, Final residual = 9.27586e-07, No Iterations 3
Adjoint continuity errors : sum local = 4.29895e-09, global = 4.83441e-10, cumulative = -2.45772e-08
ExecutionTime = 7.6 s  ClockTime = 8 s

Time = 0.442

Reading field p

Reading field U

Read primal fluxes 

Reading primal face flux fields phi/meshPhi

Created primal fluxes 

Selecting incompressible transport model Newtonian
singlePhaseTransportModel gewaehlt 

Selecting turbulence model type RASModel
Selecting RAS turbulence model kOmegaSST
kOmegaSSTCoeffs
{
    alphaK1         0.85034;
    alphaK2         1;
    alphaOmega1     0.5;
    alphaOmega2     0.85616;
    gamma1          0.5532;
    gamma2          0.4403;
    beta1           0.075;
    beta2           0.0828;
    betaStar        0.09;
    a1              0.31;
    c1              10;
    Cmu             0.09;
    b1              1;
    F3              false;
}

autoPtr ausgefuehrt

Reading/calculating face velocity Uf

Init adjoint face velocity linUf

Courant Number mean: 0.268173 max: 0.594568
Adjoint Courant Number mean: 0.00182883 max: 0.211581
GAMG:  Solving for cellDisplacementx, Initial residual = 0, Final residual = 0, No Iterations 0
GAMG:  Solving for cellDisplacementy, Initial residual = 0, Final residual = 0, No Iterations 0
GAMG:  Solving for cellDisplacementz, Initial residual = 0, Final residual = 0, No Iterations 0
PIMPLE: iteration 1
DILUPBiCG:  Solving for linUx, Initial residual = 0.0525526, Final residual = 0.000175256, No Iterations 1
DILUPBiCG:  Solving for linUy, Initial residual = 0.10291, Final residual = 0.00024731, No Iterations 1
DILUPBiCG:  Solving for linUz, Initial residual = 0.120005, Final residual = 0.000256121, No Iterations 1
GAMG:  Solving for linP, Initial residual = 0.286961, Final residual = 0.000762355, No Iterations 3
GAMG:  Solving for linP, Initial residual = 0.00464015, Final residual = 3.61573e-05, No Iterations 4
GAMG:  Solving for linP, Initial residual = 0.00129611, Final residual = 9.64808e-06, No Iterations 4
Adjoint continuity errors : sum local = 6.7806e-08, global = -1.20049e-08, cumulative = -3.6582e-08
GAMG:  Solving for linP, Initial residual = 0.0113925, Final residual = 6.02067e-05, No Iterations 3
GAMG:  Solving for linP, Initial residual = 0.00103728, Final residual = 6.55233e-06, No Iterations 4
GAMG:  Solving for linP, Initial residual = 0.000297646, Final residual = 2.17981e-06, No Iterations 4
Adjoint continuity errors : sum local = 1.51542e-08, global = -1.91663e-09, cumulative = -3.84986e-08
PIMPLE: iteration 2
DILUPBiCG:  Solving for linUx, Initial residual = 0.00766607, Final residual = 6.18047e-05, No Iterations 1
DILUPBiCG:  Solving for linUy, Initial residual = 0.0149509, Final residual = 9.50393e-05, No Iterations 1
DILUPBiCG:  Solving for linUz, Initial residual = 0.0141974, Final residual = 3.21378e-05, No Iterations 1
GAMG:  Solving for linP, Initial residual = 0.0289701, Final residual = 0.000279565, No Iterations 2
GAMG:  Solving for linP, Initial residual = 0.000801767, Final residual = 4.99781e-06, No Iterations 4
GAMG:  Solving for linP, Initial residual = 0.000213115, Final residual = 2.0396e-06, No Iterations 3
Adjoint continuity errors : sum local = 1.42154e-08, global = 7.84786e-10, cumulative = -3.77139e-08
GAMG:  Solving for linP, Initial residual = 0.00173662, Final residual = 5.21496e-06, No Iterations 3
GAMG:  Solving for linP, Initial residual = 0.000119993, Final residual = 5.08493e-07, No Iterations 4
GAMG:  Solving for linP, Initial residual = 3.1382e-05, Final residual = 7.36464e-07, No Iterations 2
Adjoint continuity errors : sum local = 5.13466e-09, global = -3.78967e-11, cumulative = -3.77518e-08
PIMPLE: iteration 3
DILUPBiCG:  Solving for linUx, Initial residual = 0.00159226, Final residual = 7.15829e-06, No Iterations 1
DILUPBiCG:  Solving for linUy, Initial residual = 0.00321703, Final residual = 1.04208e-07, No Iterations 2
DILUPBiCG:  Solving for linUz, Initial residual = 0.00278538, Final residual = 1.34354e-07, No Iterations 2
GAMG:  Solving for linP, Initial residual = 0.0458361, Final residual = 0.000140475, No Iterations 3
GAMG:  Solving for linP, Initial residual = 0.00072553, Final residual = 4.44289e-06, No Iterations 4
GAMG:  Solving for linP, Initial residual = 0.000195037, Final residual = 1.83176e-06, No Iterations 3
Adjoint continuity errors : sum local = 1.29729e-08, global = -2.81708e-11, cumulative = -3.77799e-08
GAMG:  Solving for linP, Initial residual = 0.00212442, Final residual = 2.11889e-05, No Iterations 2
GAMG:  Solving for linP, Initial residual = 9.44339e-05, Final residual = 7.81386e-07, No Iterations 4
GAMG:  Solving for linP, Initial residual = 3.17793e-05, Final residual = 8.24719e-07, No Iterations 2
Adjoint continuity errors : sum local = 5.85475e-09, global = 5.72376e-11, cumulative = -3.77227e-08
ExecutionTime = 14.46 s  ClockTime = 15 s

Time = 0.443

Reading field p

Reading field U

Read primal fluxes 

Reading primal face flux fields phi/meshPhi

Created primal fluxes 

Selecting incompressible transport model Newtonian
singlePhaseTransportModel gewaehlt 

Selecting turbulence model type RASModel
Selecting RAS turbulence model kOmegaSST
kOmegaSSTCoeffs
{
    alphaK1         0.85034;
    alphaK2         1;
    alphaOmega1     0.5;
    alphaOmega2     0.85616;
    gamma1          0.5532;
    gamma2          0.4403;
    beta1           0.075;
    beta2           0.0828;
    betaStar        0.09;
    a1              0.31;
    c1              10;
    Cmu             0.09;
    b1              1;
    F3              false;
}

autoPtr ausgefuehrt

Reading/calculating face velocity Uf

Init adjoint face velocity linUf

Courant Number mean: 0.270824 max: 0.60033
Adjoint Courant Number mean: 0.00184634 max: 0.310798
GAMG:  Solving for cellDisplacementx, Initial residual = 0, Final residual = 0, No Iterations 0
GAMG:  Solving for cellDisplacementy, Initial residual = 0, Final residual = 0, No Iterations 0
GAMG:  Solving for cellDisplacementz, Initial residual = 0, Final residual = 0, No Iterations 0
PIMPLE: iteration 1
DILUPBiCG:  Solving for linUx, Initial residual = 0.0469257, Final residual = 0.000139847, No Iterations 1
DILUPBiCG:  Solving for linUy, Initial residual = 0.0819797, Final residual = 0.000186479, No Iterations 1
DILUPBiCG:  Solving for linUz, Initial residual = 0.0846122, Final residual = 0.000173212, No Iterations 1
GAMG:  Solving for linP, Initial residual = 0.166189, Final residual = 0.000678952, No Iterations 3
GAMG:  Solving for linP, Initial residual = 0.00180988, Final residual = 8.40027e-06, No Iterations 4
GAMG:  Solving for linP, Initial residual = 0.000473084, Final residual = 4.10751e-06, No Iterations 3
Adjoint continuity errors : sum local = 3.61711e-08, global = 1.15517e-09, cumulative = -3.65675e-08
GAMG:  Solving for linP, Initial residual = 0.00525315, Final residual = 4.93594e-05, No Iterations 2
GAMG:  Solving for linP, Initial residual = 0.000231299, Final residual = 1.74872e-06, No Iterations 4
GAMG:  Solving for linP, Initial residual = 7.38751e-05, Final residual = 6.99546e-07, No Iterations 3
Adjoint continuity errors : sum local = 6.12838e-09, global = 3.40386e-10, cumulative = -3.62271e-08
PIMPLE: iteration 2
DILUPBiCG:  Solving for linUx, Initial residual = 0.00731339, Final residual = 1.88251e-05, No Iterations 1
DILUPBiCG:  Solving for linUy, Initial residual = 0.0130468, Final residual = 3.79838e-05, No Iterations 1
DILUPBiCG:  Solving for linUz, Initial residual = 0.0127144, Final residual = 3.2723e-05, No Iterations 1
GAMG:  Solving for linP, Initial residual = 0.0207169, Final residual = 0.000206815, No Iterations 2
GAMG:  Solving for linP, Initial residual = 0.000572524, Final residual = 4.6789e-06, No Iterations 4
GAMG:  Solving for linP, Initial residual = 0.00015601, Final residual = 1.4139e-06, No Iterations 3
Adjoint continuity errors : sum local = 1.23576e-08, global = 5.12086e-10, cumulative = -3.5715e-08
GAMG:  Solving for linP, Initial residual = 0.00124821, Final residual = 3.59867e-06, No Iterations 3
GAMG:  Solving for linP, Initial residual = 8.02888e-05, Final residual = 3.33434e-07, No Iterations 4
GAMG:  Solving for linP, Initial residual = 2.12629e-05, Final residual = 5.10102e-07, No Iterations 2
Adjoint continuity errors : sum local = 4.46019e-09, global = 2.17552e-11, cumulative = -3.56933e-08
PIMPLE: iteration 3
DILUPBiCG:  Solving for linUx, Initial residual = 0.00148175, Final residual = 5.83924e-06, No Iterations 1
DILUPBiCG:  Solving for linUy, Initial residual = 0.00270553, Final residual = 9.6127e-06, No Iterations 1
DILUPBiCG:  Solving for linUz, Initial residual = 0.00240423, Final residual = 9.39988e-06, No Iterations 1
GAMG:  Solving for linP, Initial residual = 0.0461485, Final residual = 0.000172368, No Iterations 3
GAMG:  Solving for linP, Initial residual = 0.000666385, Final residual = 3.50586e-06, No Iterations 4
GAMG:  Solving for linP, Initial residual = 0.000171979, Final residual = 1.55517e-06, No Iterations 3
Adjoint continuity errors : sum local = 1.37903e-08, global = -1.3151e-09, cumulative = -3.70084e-08
GAMG:  Solving for linP, Initial residual = 0.0019408, Final residual = 6.32986e-06, No Iterations 3
GAMG:  Solving for linP, Initial residual = 8.52905e-05, Final residual = 5.39114e-07, No Iterations 4
GAMG:  Solving for linP, Initial residual = 2.62068e-05, Final residual = 6.94311e-07, No Iterations 2
Adjoint continuity errors : sum local = 6.16902e-09, global = -3.89801e-11, cumulative = -3.70474e-08
ExecutionTime = 20.68 s  ClockTime = 21 s

Time = 0.444

Reading field p

Reading field U

Read primal fluxes 

Reading primal face flux fields phi/meshPhi

Created primal fluxes 

Selecting incompressible transport model Newtonian
singlePhaseTransportModel gewaehlt 

Selecting turbulence model type RASModel
Selecting RAS turbulence model kOmegaSST
kOmegaSSTCoeffs
{
    alphaK1         0.85034;
    alphaK2         1;
    alphaOmega1     0.5;
    alphaOmega2     0.85616;
    gamma1          0.5532;
    gamma2          0.4403;
    beta1           0.075;
    beta2           0.0828;
    betaStar        0.09;
    a1              0.31;
    c1              10;
    Cmu             0.09;
    b1              1;
    F3              false;
}

autoPtr ausgefuehrt

Reading/calculating face velocity Uf

Init adjoint face velocity linUf

Courant Number mean: 0.273141 max: 0.605311
Adjoint Courant Number mean: 0.00186982 max: 0.348028
GAMG:  Solving for cellDisplacementx, Initial residual = 0, Final residual = 0, No Iterations 0
GAMG:  Solving for cellDisplacementy, Initial residual = 0, Final residual = 0, No Iterations 0
GAMG:  Solving for cellDisplacementz, Initial residual = 0, Final residual = 0, No Iterations 0
PIMPLE: iteration 1
DILUPBiCG:  Solving for linUx, Initial residual = 0.0437861, Final residual = 0.000125978, No Iterations 1
DILUPBiCG:  Solving for linUy, Initial residual = 0.0705983, Final residual = 0.000156186, No Iterations 1
DILUPBiCG:  Solving for linUz, Initial residual = 0.0741811, Final residual = 0.000153237, No Iterations 1
GAMG:  Solving for linP, Initial residual = 0.119628, Final residual = 0.00061438, No Iterations 3
GAMG:  Solving for linP, Initial residual = 0.00147011, Final residual = 1.33389e-05, No Iterations 4
GAMG:  Solving for linP, Initial residual = 0.000369875, Final residual = 1.69974e-06, No Iterations 4
Adjoint continuity errors : sum local = 1.71253e-08, global = -3.13231e-09, cumulative = -4.01797e-08
GAMG:  Solving for linP, Initial residual = 0.00329506, Final residual = 1.15683e-05, No Iterations 3
GAMG:  Solving for linP, Initial residual = 0.000166868, Final residual = 1.11813e-06, No Iterations 4
GAMG:  Solving for linP, Initial residual = 4.72928e-05, Final residual = 5.40205e-07, No Iterations 3
Adjoint continuity errors : sum local = 5.42611e-09, global = 6.94511e-10, cumulative = -3.94852e-08
PIMPLE: iteration 2
DILUPBiCG:  Solving for linUx, Initial residual = 0.00688976, Final residual = 1.85507e-05, No Iterations 1
DILUPBiCG:  Solving for linUy, Initial residual = 0.0114703, Final residual = 2.61828e-05, No Iterations 1
DILUPBiCG:  Solving for linUz, Initial residual = 0.0113394, Final residual = 3.19829e-05, No Iterations 1
GAMG:  Solving for linP, Initial residual = 0.0164541, Final residual = 4.99573e-05, No Iterations 3
GAMG:  Solving for linP, Initial residual = 0.000394995, Final residual = 3.44795e-06, No Iterations 3
GAMG:  Solving for linP, Initial residual = 9.23965e-05, Final residual = 6.4485e-07, No Iterations 4
Adjoint continuity errors : sum local = 6.44852e-09, global = 1.30367e-09, cumulative = -3.81815e-08
GAMG:  Solving for linP, Initial residual = 0.000987551, Final residual = 2.99422e-06, No Iterations 3
GAMG:  Solving for linP, Initial residual = 6.08844e-05, Final residual = 3.11514e-07, No Iterations 4
GAMG:  Solving for linP, Initial residual = 1.60252e-05, Final residual = 3.5484e-07, No Iterations 2
Adjoint continuity errors : sum local = 3.54987e-09, global = 2.88858e-11, cumulative = -3.81526e-08
PIMPLE: iteration 3
DILUPBiCG:  Solving for linUx, Initial residual = 0.00138939, Final residual = 5.24456e-06, No Iterations 1
DILUPBiCG:  Solving for linUy, Initial residual = 0.00231157, Final residual = 8.0845e-06, No Iterations 1
DILUPBiCG:  Solving for linUz, Initial residual = 0.00209334, Final residual = 8.94474e-06, No Iterations 1
GAMG:  Solving for linP, Initial residual = 0.0464645, Final residual = 0.000199556, No Iterations 3
GAMG:  Solving for linP, Initial residual = 0.000614825, Final residual = 4.20251e-06, No Iterations 4
GAMG:  Solving for linP, Initial residual = 0.000149115, Final residual = 7.82113e-07, No Iterations 4
Adjoint continuity errors : sum local = 7.92619e-09, global = 1.22969e-09, cumulative = -3.69229e-08
GAMG:  Solving for linP, Initial residual = 0.00180734, Final residual = 1.79431e-05, No Iterations 2
GAMG:  Solving for linP, Initial residual = 7.06663e-05, Final residual = 4.20231e-07, No Iterations 4
GAMG:  Solving for linP, Initial residual = 2.35726e-05, Final residual = 7.35526e-07, No Iterations 2
Adjoint continuity errors : sum local = 7.46715e-09, global = 7.81053e-11, cumulative = -3.68448e-08
ExecutionTime = 26.95 s  ClockTime = 27 s

Time = 0.445

Reading field p

Reading field U

Read primal fluxes 

Reading primal face flux fields phi/meshPhi

Created primal fluxes 

Selecting incompressible transport model Newtonian
singlePhaseTransportModel gewaehlt 

Selecting turbulence model type RASModel
Selecting RAS turbulence model kOmegaSST
kOmegaSSTCoeffs
{
    alphaK1         0.85034;
    alphaK2         1;
    alphaOmega1     0.5;
    alphaOmega2     0.85616;
    gamma1          0.5532;
    gamma2          0.4403;
    beta1           0.075;
    beta2           0.0828;
    betaStar        0.09;
    a1              0.31;
    c1              10;
    Cmu             0.09;
    b1              1;
    F3              false;
}

autoPtr ausgefuehrt

Reading/calculating face velocity Uf

Init adjoint face velocity linUf

Courant Number mean: 0.275124 max: 0.609502
Adjoint Courant Number mean: 0.00189681 max: 0.345962
GAMG:  Solving for cellDisplacementx, Initial residual = 0, Final residual = 0, No Iterations 0
GAMG:  Solving for cellDisplacementy, Initial residual = 0, Final residual = 0, No Iterations 0
GAMG:  Solving for cellDisplacementz, Initial residual = 0, Final residual = 0, No Iterations 0
PIMPLE: iteration 1
DILUPBiCG:  Solving for linUx, Initial residual = 0.0404029, Final residual = 0.000113139, No Iterations 1
DILUPBiCG:  Solving for linUy, Initial residual = 0.0613124, Final residual = 0.000132167, No Iterations 1
DILUPBiCG:  Solving for linUz, Initial residual = 0.0646653, Final residual = 0.000134466, No Iterations 1
GAMG:  Solving for linP, Initial residual = 0.0950476, Final residual = 0.000567481, No Iterations 3
GAMG:  Solving for linP, Initial residual = 0.00126493, Final residual = 4.12212e-06, No Iterations 5
GAMG:  Solving for linP, Initial residual = 0.000326128, Final residual = 1.53679e-06, No Iterations 4
Adjoint continuity errors : sum local = 1.68734e-08, global = -2.00811e-09, cumulative = -3.88529e-08
GAMG:  Solving for linP, Initial residual = 0.00234724, Final residual = 8.35736e-06, No Iterations 3
GAMG:  Solving for linP, Initial residual = 0.000133738, Final residual = 8.22485e-07, No Iterations 4
GAMG:  Solving for linP, Initial residual = 3.71111e-05, Final residual = 9.64565e-07, No Iterations 2
Adjoint continuity errors : sum local = 1.05678e-08, global = -1.91857e-10, cumulative = -3.90448e-08
PIMPLE: iteration 2
DILUPBiCG:  Solving for linUx, Initial residual = 0.00655848, Final residual = 1.78666e-05, No Iterations 1
DILUPBiCG:  Solving for linUy, Initial residual = 0.0102292, Final residual = 2.22776e-05, No Iterations 1
DILUPBiCG:  Solving for linUz, Initial residual = 0.0101721, Final residual = 3.22097e-05, No Iterations 1
GAMG:  Solving for linP, Initial residual = 0.0138294, Final residual = 0.000137979, No Iterations 2
GAMG:  Solving for linP, Initial residual = 0.000347431, Final residual = 2.35172e-06, No Iterations 4
GAMG:  Solving for linP, Initial residual = 9.67899e-05, Final residual = 6.35134e-07, No Iterations 4
Adjoint continuity errors : sum local = 6.91991e-09, global = 1.95431e-10, cumulative = -3.88493e-08
GAMG:  Solving for linP, Initial residual = 0.000829553, Final residual = 2.72352e-06, No Iterations 3
GAMG:  Solving for linP, Initial residual = 5.14747e-05, Final residual = 4.61361e-07, No Iterations 3
GAMG:  Solving for linP, Initial residual = 1.2553e-05, Final residual = 2.90549e-07, No Iterations 2
Adjoint continuity errors : sum local = 3.16678e-09, global = 3.74947e-11, cumulative = -3.88119e-08
PIMPLE: iteration 3
DILUPBiCG:  Solving for linUx, Initial residual = 0.00131304, Final residual = 4.89238e-06, No Iterations 1
DILUPBiCG:  Solving for linUy, Initial residual = 0.00201351, Final residual = 7.05744e-06, No Iterations 1
DILUPBiCG:  Solving for linUz, Initial residual = 0.00185057, Final residual = 8.15343e-06, No Iterations 1
GAMG:  Solving for linP, Initial residual = 0.0467582, Final residual = 0.000223596, No Iterations 3
GAMG:  Solving for linP, Initial residual = 0.000600361, Final residual = 4.76905e-06, No Iterations 4
GAMG:  Solving for linP, Initial residual = 0.000144317, Final residual = 8.07506e-07, No Iterations 4
Adjoint continuity errors : sum local = 8.90888e-09, global = 1.51296e-09, cumulative = -3.72989e-08
GAMG:  Solving for linP, Initial residual = 0.00169811, Final residual = 1.63931e-05, No Iterations 2
GAMG:  Solving for linP, Initial residual = 6.28081e-05, Final residual = 4.49637e-07, No Iterations 4
GAMG:  Solving for linP, Initial residual = 2.11706e-05, Final residual = 7.08058e-07, No Iterations 2
Adjoint continuity errors : sum local = 7.82455e-09, global = -4.23672e-10, cumulative = -3.77226e-08
ExecutionTime = 33.04 s  ClockTime = 33 s

Time = 0.446

Reading field p

Reading field U

Read primal fluxes 

Reading primal face flux fields phi/meshPhi

Created primal fluxes 

Selecting incompressible transport model Newtonian
singlePhaseTransportModel gewaehlt 

Selecting turbulence model type RASModel
Selecting RAS turbulence model kOmegaSST
kOmegaSSTCoeffs
{
    alphaK1         0.85034;
    alphaK2         1;
    alphaOmega1     0.5;
    alphaOmega2     0.85616;
    gamma1          0.5532;
    gamma2          0.4403;
    beta1           0.075;
    beta2           0.0828;
    betaStar        0.09;
    a1              0.31;
    c1              10;
    Cmu             0.09;
    b1              1;
    F3              false;
}

autoPtr ausgefuehrt

Reading/calculating face velocity Uf

Init adjoint face velocity linUf

Courant Number mean: 0.276759 max: 0.612861
Adjoint Courant Number mean: 0.0019219 max: 0.324866
GAMG:  Solving for cellDisplacementx, Initial residual = 0, Final residual = 0, No Iterations 0
GAMG:  Solving for cellDisplacementy, Initial residual = 0, Final residual = 0, No Iterations 0
GAMG:  Solving for cellDisplacementz, Initial residual = 0, Final residual = 0, No Iterations 0
PIMPLE: iteration 1
DILUPBiCG:  Solving for linUx, Initial residual = 0.0375565, Final residual = 0.000103244, No Iterations 1
DILUPBiCG:  Solving for linUy, Initial residual = 0.0538674, Final residual = 0.000116209, No Iterations 1
DILUPBiCG:  Solving for linUz, Initial residual = 0.0568604, Final residual = 0.000117071, No Iterations 1
GAMG:  Solving for linP, Initial residual = 0.0803466, Final residual = 0.000535395, No Iterations 3
GAMG:  Solving for linP, Initial residual = 0.00105343, Final residual = 8.89473e-06, No Iterations 4
GAMG:  Solving for linP, Initial residual = 0.000264066, Final residual = 1.33667e-06, No Iterations 4
Adjoint continuity errors : sum local = 1.55253e-08, global = -2.06209e-09, cumulative = -3.97847e-08
GAMG:  Solving for linP, Initial residual = 0.00182313, Final residual = 5.50926e-06, No Iterations 3
GAMG:  Solving for linP, Initial residual = 9.14754e-05, Final residual = 4.55765e-07, No Iterations 4
GAMG:  Solving for linP, Initial residual = 2.4176e-05, Final residual = 5.95844e-07, No Iterations 2
Adjoint continuity errors : sum local = 6.9091e-09, global = -4.7471e-10, cumulative = -4.02594e-08
PIMPLE: iteration 2
DILUPBiCG:  Solving for linUx, Initial residual = 0.00626906, Final residual = 1.69054e-05, No Iterations 1
DILUPBiCG:  Solving for linUy, Initial residual = 0.00918849, Final residual = 1.98888e-05, No Iterations 1
DILUPBiCG:  Solving for linUz, Initial residual = 0.00918824, Final residual = 3.64972e-05, No Iterations 1
GAMG:  Solving for linP, Initial residual = 0.012097, Final residual = 0.000116481, No Iterations 2
GAMG:  Solving for linP, Initial residual = 0.000295539, Final residual = 2.35886e-06, No Iterations 4
GAMG:  Solving for linP, Initial residual = 8.30798e-05, Final residual = 5.38969e-07, No Iterations 4
Adjoint continuity errors : sum local = 6.20981e-09, global = -3.53397e-10, cumulative = -4.06128e-08
GAMG:  Solving for linP, Initial residual = 0.000723565, Final residual = 2.50386e-06, No Iterations 3
GAMG:  Solving for linP, Initial residual = 4.43482e-05, Final residual = 4.28331e-07, No Iterations 3
GAMG:  Solving for linP, Initial residual = 1.10622e-05, Final residual = 2.59987e-07, No Iterations 2
Adjoint continuity errors : sum local = 2.99651e-09, global = 1.39388e-10, cumulative = -4.04734e-08
PIMPLE: iteration 3
DILUPBiCG:  Solving for linUx, Initial residual = 0.00124619, Final residual = 4.73224e-06, No Iterations 1
DILUPBiCG:  Solving for linUy, Initial residual = 0.00178243, Final residual = 6.29267e-06, No Iterations 1
DILUPBiCG:  Solving for linUz, Initial residual = 0.00165577, Final residual = 7.11495e-06, No Iterations 1
GAMG:  Solving for linP, Initial residual = 0.0470269, Final residual = 0.000244189, No Iterations 3
GAMG:  Solving for linP, Initial residual = 0.000596898, Final residual = 5.23666e-06, No Iterations 4
GAMG:  Solving for linP, Initial residual = 0.000145517, Final residual = 8.47368e-07, No Iterations 4
Adjoint continuity errors : sum local = 9.87955e-09, global = 2.03513e-09, cumulative = -3.84382e-08
GAMG:  Solving for linP, Initial residual = 0.00160253, Final residual = 1.53937e-05, No Iterations 2
GAMG:  Solving for linP, Initial residual = 5.82969e-05, Final residual = 5.01354e-07, No Iterations 4
GAMG:  Solving for linP, Initial residual = 2.05618e-05, Final residual = 6.45469e-07, No Iterations 2
Adjoint continuity errors : sum local = 7.53733e-09, global = -3.27839e-10, cumulative = -3.87661e-08
ExecutionTime = 39.09 s  ClockTime = 39 s

Time = 0.447

Reading field p

Reading field U

Read primal fluxes 

Reading primal face flux fields phi/meshPhi

Created primal fluxes 

Selecting incompressible transport model Newtonian
singlePhaseTransportModel gewaehlt 

Selecting turbulence model type RASModel
Selecting RAS turbulence model kOmegaSST
kOmegaSSTCoeffs
{
    alphaK1         0.85034;
    alphaK2         1;
    alphaOmega1     0.5;
    alphaOmega2     0.85616;
    gamma1          0.5532;
    gamma2          0.4403;
    beta1           0.075;
    beta2           0.0828;
    betaStar        0.09;
    a1              0.31;
    c1              10;
    Cmu             0.09;
    b1              1;
    F3              false;
}

autoPtr ausgefuehrt

Reading/calculating face velocity Uf

Init adjoint face velocity linUf

Courant Number mean: 0.278045 max: 0.615397
Adjoint Courant Number mean: 0.00194498 max: 0.294878
GAMG:  Solving for cellDisplacementx, Initial residual = 0, Final residual = 0, No Iterations 0
GAMG:  Solving for cellDisplacementy, Initial residual = 0, Final residual = 0, No Iterations 0
GAMG:  Solving for cellDisplacementz, Initial residual = 0, Final residual = 0, No Iterations 0
PIMPLE: iteration 1
DILUPBiCG:  Solving for linUx, Initial residual = 0.0352314, Final residual = 9.57555e-05, No Iterations 1
DILUPBiCG:  Solving for linUy, Initial residual = 0.0477772, Final residual = 0.000103664, No Iterations 1
DILUPBiCG:  Solving for linUz, Initial residual = 0.0504891, Final residual = 0.000102549, No Iterations 1
GAMG:  Solving for linP, Initial residual = 0.0704239, Final residual = 0.00050086, No Iterations 3
GAMG:  Solving for linP, Initial residual = 0.000945947, Final residual = 8.28474e-06, No Iterations 4
GAMG:  Solving for linP, Initial residual = 0.00023936, Final residual = 1.34558e-06, No Iterations 4
Adjoint continuity errors : sum local = 1.6195e-08, global = -1.78184e-09, cumulative = -4.05479e-08
GAMG:  Solving for linP, Initial residual = 0.00149805, Final residual = 4.74568e-06, No Iterations 3
GAMG:  Solving for linP, Initial residual = 7.90335e-05, Final residual = 4.75889e-07, No Iterations 4
GAMG:  Solving for linP, Initial residual = 2.30481e-05, Final residual = 6.05925e-07, No Iterations 2
Adjoint continuity errors : sum local = 7.28281e-09, global = -9.69013e-11, cumulative = -4.06448e-08
PIMPLE: iteration 2
DILUPBiCG:  Solving for linUx, Initial residual = 0.00598692, Final residual = 1.59802e-05, No Iterations 1
DILUPBiCG:  Solving for linUy, Initial residual = 0.00832832, Final residual = 1.82614e-05, No Iterations 1
DILUPBiCG:  Solving for linUz, Initial residual = 0.00833365, Final residual = 4.23288e-05, No Iterations 1
GAMG:  Solving for linP, Initial residual = 0.0108675, Final residual = 0.000100797, No Iterations 2
GAMG:  Solving for linP, Initial residual = 0.000255186, Final residual = 1.77912e-06, No Iterations 4
GAMG:  Solving for linP, Initial residual = 7.06221e-05, Final residual = 4.02204e-07, No Iterations 4
Adjoint continuity errors : sum local = 4.80026e-09, global = 4.82956e-10, cumulative = -4.01619e-08
GAMG:  Solving for linP, Initial residual = 0.000645433, Final residual = 2.28382e-06, No Iterations 3
GAMG:  Solving for linP, Initial residual = 3.85647e-05, Final residual = 3.79233e-07, No Iterations 3
GAMG:  Solving for linP, Initial residual = 9.45602e-06, Final residual = 2.38497e-07, No Iterations 2
Adjoint continuity errors : sum local = 2.84735e-09, global = 1.90009e-10, cumulative = -3.99719e-08
PIMPLE: iteration 3
DILUPBiCG:  Solving for linUx, Initial residual = 0.00118441, Final residual = 4.66446e-06, No Iterations 1
DILUPBiCG:  Solving for linUy, Initial residual = 0.00160006, Final residual = 5.73937e-06, No Iterations 1
DILUPBiCG:  Solving for linUz, Initial residual = 0.00149635, Final residual = 6.31813e-06, No Iterations 1
GAMG:  Solving for linP, Initial residual = 0.0472507, Final residual = 0.000262153, No Iterations 3
GAMG:  Solving for linP, Initial residual = 0.000595353, Final residual = 5.56121e-06, No Iterations 4
GAMG:  Solving for linP, Initial residual = 0.000146606, Final residual = 8.93837e-07, No Iterations 4
Adjoint continuity errors : sum local = 1.07896e-08, global = 2.50256e-09, cumulative = -3.74693e-08
GAMG:  Solving for linP, Initial residual = 0.00151967, Final residual = 1.46617e-05, No Iterations 2
GAMG:  Solving for linP, Initial residual = 5.60369e-05, Final residual = 5.2361e-07, No Iterations 4
GAMG:  Solving for linP, Initial residual = 2.14118e-05, Final residual = 6.78607e-07, No Iterations 2
Adjoint continuity errors : sum local = 8.20374e-09, global = 1.88454e-10, cumulative = -3.72808e-08
ExecutionTime = 44.49 s  ClockTime = 45 s

Time = 0.448

Reading field p

Reading field U

Read primal fluxes 

Reading primal face flux fields phi/meshPhi

Created primal fluxes 

Selecting incompressible transport model Newtonian
singlePhaseTransportModel gewaehlt 

Selecting turbulence model type RASModel
Selecting RAS turbulence model kOmegaSST
kOmegaSSTCoeffs
{
    alphaK1         0.85034;
    alphaK2         1;
    alphaOmega1     0.5;
    alphaOmega2     0.85616;
    gamma1          0.5532;
    gamma2          0.4403;
    beta1           0.075;
    beta2           0.0828;
    betaStar        0.09;
    a1              0.31;
    c1              10;
    Cmu             0.09;
    b1              1;
    F3              false;
}

autoPtr ausgefuehrt

Reading/calculating face velocity Uf

Init adjoint face velocity linUf

Courant Number mean: 0.278973 max: 0.617157
Adjoint Courant Number mean: 0.00196763 max: 0.26341
GAMG:  Solving for cellDisplacementx, Initial residual = 0, Final residual = 0, No Iterations 0
GAMG:  Solving for cellDisplacementy, Initial residual = 0, Final residual = 0, No Iterations 0
GAMG:  Solving for cellDisplacementz, Initial residual = 0, Final residual = 0, No Iterations 0
PIMPLE: iteration 1
DILUPBiCG:  Solving for linUx, Initial residual = 0.0331061, Final residual = 8.92914e-05, No Iterations 1
DILUPBiCG:  Solving for linUy, Initial residual = 0.0428429, Final residual = 9.36964e-05, No Iterations 1
DILUPBiCG:  Solving for linUz, Initial residual = 0.0451247, Final residual = 9.02689e-05, No Iterations 1
GAMG:  Solving for linP, Initial residual = 0.0633841, Final residual = 0.000470205, No Iterations 3
GAMG:  Solving for linP, Initial residual = 0.000866754, Final residual = 8.39742e-06, No Iterations 4
GAMG:  Solving for linP, Initial residual = 0.000221871, Final residual = 1.30108e-06, No Iterations 4
Adjoint continuity errors : sum local = 1.59868e-08, global = -2.52094e-09, cumulative = -3.98018e-08
GAMG:  Solving for linP, Initial residual = 0.00128539, Final residual = 4.37864e-06, No Iterations 3
GAMG:  Solving for linP, Initial residual = 7.17716e-05, Final residual = 5.12247e-07, No Iterations 4
GAMG:  Solving for linP, Initial residual = 1.98858e-05, Final residual = 3.28729e-07, No Iterations 3
Adjoint continuity errors : sum local = 4.03458e-09, global = 5.64096e-10, cumulative = -3.92377e-08
PIMPLE: iteration 2
DILUPBiCG:  Solving for linUx, Initial residual = 0.00571508, Final residual = 1.55428e-05, No Iterations 1
DILUPBiCG:  Solving for linUy, Initial residual = 0.00760938, Final residual = 1.70092e-05, No Iterations 1
DILUPBiCG:  Solving for linUz, Initial residual = 0.00761611, Final residual = 5.24987e-05, No Iterations 1
GAMG:  Solving for linP, Initial residual = 0.00997886, Final residual = 8.98282e-05, No Iterations 2
GAMG:  Solving for linP, Initial residual = 0.000232315, Final residual = 1.63379e-06, No Iterations 4
GAMG:  Solving for linP, Initial residual = 6.46838e-05, Final residual = 3.75998e-07, No Iterations 4
Adjoint continuity errors : sum local = 4.58027e-09, global = -5.40933e-10, cumulative = -3.97786e-08
GAMG:  Solving for linP, Initial residual = 0.000585861, Final residual = 2.10383e-06, No Iterations 3
GAMG:  Solving for linP, Initial residual = 3.56171e-05, Final residual = 3.54581e-07, No Iterations 3
GAMG:  Solving for linP, Initial residual = 8.85909e-06, Final residual = 9.39437e-07, No Iterations 1
Adjoint continuity errors : sum local = 1.14473e-08, global = -1.36424e-11, cumulative = -3.97923e-08
PIMPLE: iteration 3
DILUPBiCG:  Solving for linUx, Initial residual = 0.00112865, Final residual = 4.63571e-06, No Iterations 1
DILUPBiCG:  Solving for linUy, Initial residual = 0.00145426, Final residual = 5.29741e-06, No Iterations 1
DILUPBiCG:  Solving for linUz, Initial residual = 0.00136388, Final residual = 5.6406e-06, No Iterations 1
GAMG:  Solving for linP, Initial residual = 0.0474504, Final residual = 0.000278086, No Iterations 3
GAMG:  Solving for linP, Initial residual = 0.000597724, Final residual = 5.80385e-06, No Iterations 4
GAMG:  Solving for linP, Initial residual = 0.000148655, Final residual = 9.29658e-07, No Iterations 4
Adjoint continuity errors : sum local = 1.14487e-08, global = 2.58882e-09, cumulative = -3.72034e-08
GAMG:  Solving for linP, Initial residual = 0.00144808, Final residual = 1.40417e-05, No Iterations 2
GAMG:  Solving for linP, Initial residual = 5.44893e-05, Final residual = 4.68296e-07, No Iterations 4
GAMG:  Solving for linP, Initial residual = 2.09628e-05, Final residual = 6.95437e-07, No Iterations 2
Adjoint continuity errors : sum local = 8.57645e-09, global = 9.27701e-11, cumulative = -3.71107e-08
ExecutionTime = 48.67 s  ClockTime = 49 s

Time = 0.449

Reading field p

Reading field U

Read primal fluxes 

Reading primal face flux fields phi/meshPhi

Created primal fluxes 

Selecting incompressible transport model Newtonian
singlePhaseTransportModel gewaehlt 

Selecting turbulence model type RASModel
Selecting RAS turbulence model kOmegaSST
kOmegaSSTCoeffs
{
    alphaK1         0.85034;
    alphaK2         1;
    alphaOmega1     0.5;
    alphaOmega2     0.85616;
    gamma1          0.5532;
    gamma2          0.4403;
    beta1           0.075;
    beta2           0.0828;
    betaStar        0.09;
    a1              0.31;
    c1              10;
    Cmu             0.09;
    b1              1;
    F3              false;
}

autoPtr ausgefuehrt

Reading/calculating face velocity Uf

Init adjoint face velocity linUf

Courant Number mean: 0.279542 max: 0.61806
Adjoint Courant Number mean: 0.00198902 max: 0.232681
GAMG:  Solving for cellDisplacementx, Initial residual = 0, Final residual = 0, No Iterations 0
GAMG:  Solving for cellDisplacementy, Initial residual = 0, Final residual = 0, No Iterations 0
GAMG:  Solving for cellDisplacementz, Initial residual = 0, Final residual = 0, No Iterations 0
PIMPLE: iteration 1
DILUPBiCG:  Solving for linUx, Initial residual = 0.0311775, Final residual = 8.40748e-05, No Iterations 1
DILUPBiCG:  Solving for linUy, Initial residual = 0.038786, Final residual = 8.54233e-05, No Iterations 1
DILUPBiCG:  Solving for linUz, Initial residual = 0.0406838, Final residual = 8.02501e-05, No Iterations 1
GAMG:  Solving for linP, Initial residual = 0.0580856, Final residual = 0.000445698, No Iterations 3
GAMG:  Solving for linP, Initial residual = 0.000819549, Final residual = 8.06143e-06, No Iterations 4
GAMG:  Solving for linP, Initial residual = 0.000209742, Final residual = 1.17752e-06, No Iterations 4
Adjoint continuity errors : sum local = 1.46069e-08, global = -1.48686e-09, cumulative = -3.85975e-08
GAMG:  Solving for linP, Initial residual = 0.00113652, Final residual = 4.1008e-06, No Iterations 3
GAMG:  Solving for linP, Initial residual = 6.8762e-05, Final residual = 3.73503e-07, No Iterations 4
GAMG:  Solving for linP, Initial residual = 1.93621e-05, Final residual = 4.77549e-07, No Iterations 2
Adjoint continuity errors : sum local = 5.91799e-09, global = -1.86183e-11, cumulative = -3.86161e-08
PIMPLE: iteration 2
DILUPBiCG:  Solving for linUx, Initial residual = 0.00545751, Final residual = 1.53624e-05, No Iterations 1
DILUPBiCG:  Solving for linUy, Initial residual = 0.00700466, Final residual = 1.59858e-05, No Iterations 1
DILUPBiCG:  Solving for linUz, Initial residual = 0.00700712, Final residual = 9.62052e-05, No Iterations 1
GAMG:  Solving for linP, Initial residual = 0.00928346, Final residual = 8.23878e-05, No Iterations 2
GAMG:  Solving for linP, Initial residual = 0.000215887, Final residual = 1.50637e-06, No Iterations 4
GAMG:  Solving for linP, Initial residual = 6.06424e-05, Final residual = 9.17669e-07, No Iterations 3
Adjoint continuity errors : sum local = 1.12839e-08, global = 1.23049e-09, cumulative = -3.73857e-08
GAMG:  Solving for linP, Initial residual = 0.000537057, Final residual = 1.98754e-06, No Iterations 3
GAMG:  Solving for linP, Initial residual = 3.32301e-05, Final residual = 9.88412e-07, No Iterations 2
GAMG:  Solving for linP, Initial residual = 7.76987e-06, Final residual = 8.42646e-07, No Iterations 1
Adjoint continuity errors : sum local = 1.03642e-08, global = 7.43561e-11, cumulative = -3.73113e-08
PIMPLE: iteration 3
DILUPBiCG:  Solving for linUx, Initial residual = 0.0010754, Final residual = 4.61561e-06, No Iterations 1
DILUPBiCG:  Solving for linUy, Initial residual = 0.00133288, Final residual = 4.93619e-06, No Iterations 1
DILUPBiCG:  Solving for linUz, Initial residual = 0.00125371, Final residual = 5.06361e-06, No Iterations 1
GAMG:  Solving for linP, Initial residual = 0.0476126, Final residual = 0.00029226, No Iterations 3
GAMG:  Solving for linP, Initial residual = 0.000604274, Final residual = 5.99763e-06, No Iterations 4
GAMG:  Solving for linP, Initial residual = 0.000151799, Final residual = 9.50687e-07, No Iterations 4
Adjoint continuity errors : sum local = 1.18134e-08, global = 2.59957e-09, cumulative = -3.47117e-08
GAMG:  Solving for linP, Initial residual = 0.00138419, Final residual = 1.34681e-05, No Iterations 2
GAMG:  Solving for linP, Initial residual = 5.42958e-05, Final residual = 5.73574e-07, No Iterations 4
GAMG:  Solving for linP, Initial residual = 1.90564e-05, Final residual = 6.253e-07, No Iterations 2
Adjoint continuity errors : sum local = 7.78086e-09, global = 8.32e-11, cumulative = -3.46285e-08
ExecutionTime = 52.83 s  ClockTime = 53 s

Time = 0.45

Reading field p

Reading field U

Read primal fluxes 

Reading primal face flux fields phi/meshPhi

Created primal fluxes 

Selecting incompressible transport model Newtonian
singlePhaseTransportModel gewaehlt 

Selecting turbulence model type RASModel
Selecting RAS turbulence model kOmegaSST
kOmegaSSTCoeffs
{
    alphaK1         0.85034;
    alphaK2         1;
    alphaOmega1     0.5;
    alphaOmega2     0.85616;
    gamma1          0.5532;
    gamma2          0.4403;
    beta1           0.075;
    beta2           0.0828;
    betaStar        0.09;
    a1              0.31;
    c1              10;
    Cmu             0.09;
    b1              1;
    F3              false;
}

autoPtr ausgefuehrt

Reading/calculating face velocity Uf

Init adjoint face velocity linUf

Courant Number mean: 0.279748 max: 0.618144
Adjoint Courant Number mean: 0.00200906 max: 0.204176
GAMG:  Solving for cellDisplacementx, Initial residual = 0, Final residual = 0, No Iterations 0
GAMG:  Solving for cellDisplacementy, Initial residual = 0, Final residual = 0, No Iterations 0
GAMG:  Solving for cellDisplacementz, Initial residual = 0, Final residual = 0, No Iterations 0
PIMPLE: iteration 1
DILUPBiCG:  Solving for linUx, Initial residual = 0.029455, Final residual = 8.02934e-05, No Iterations 1
DILUPBiCG:  Solving for linUy, Initial residual = 0.035433, Final residual = 7.84506e-05, No Iterations 1
DILUPBiCG:  Solving for linUz, Initial residual = 0.0369712, Final residual = 7.22356e-05, No Iterations 1
GAMG:  Solving for linP, Initial residual = 0.0539643, Final residual = 0.000425372, No Iterations 3
GAMG:  Solving for linP, Initial residual = 0.000775387, Final residual = 7.68966e-06, No Iterations 4
GAMG:  Solving for linP, Initial residual = 0.000199773, Final residual = 1.01291e-06, No Iterations 4
Adjoint continuity errors : sum local = 1.25758e-08, global = 1.28159e-09, cumulative = -3.33469e-08
GAMG:  Solving for linP, Initial residual = 0.00102869, Final residual = 3.70431e-06, No Iterations 3
GAMG:  Solving for linP, Initial residual = 6.24156e-05, Final residual = 3.70509e-07, No Iterations 4
GAMG:  Solving for linP, Initial residual = 1.75943e-05, Final residual = 4.22035e-07, No Iterations 2
Adjoint continuity errors : sum local = 5.23503e-09, global = -8.1364e-11, cumulative = -3.34283e-08
PIMPLE: iteration 2
DILUPBiCG:  Solving for linUx, Initial residual = 0.00520438, Final residual = 1.52172e-05, No Iterations 1
DILUPBiCG:  Solving for linUy, Initial residual = 0.00647813, Final residual = 1.51534e-05, No Iterations 1
DILUPBiCG:  Solving for linUz, Initial residual = 0.00646926, Final residual = 0.000177071, No Iterations 1
GAMG:  Solving for linP, Initial residual = 0.00874372, Final residual = 7.7469e-05, No Iterations 2
GAMG:  Solving for linP, Initial residual = 0.000201034, Final residual = 1.33988e-06, No Iterations 4
GAMG:  Solving for linP, Initial residual = 5.55901e-05, Final residual = 7.34866e-07, No Iterations 3
Adjoint continuity errors : sum local = 9.04333e-09, global = 1.07083e-09, cumulative = -3.23575e-08
GAMG:  Solving for linP, Initial residual = 0.000513144, Final residual = 1.95177e-06, No Iterations 3
GAMG:  Solving for linP, Initial residual = 3.18785e-05, Final residual = 9.49501e-07, No Iterations 2
GAMG:  Solving for linP, Initial residual = 7.46963e-06, Final residual = 8.03119e-07, No Iterations 1
Adjoint continuity errors : sum local = 9.88593e-09, global = 7.25832e-11, cumulative = -3.22849e-08
PIMPLE: iteration 3
DILUPBiCG:  Solving for linUx, Initial residual = 0.00102244, Final residual = 4.532e-06, No Iterations 1
DILUPBiCG:  Solving for linUy, Initial residual = 0.00122751, Final residual = 4.59614e-06, No Iterations 1
DILUPBiCG:  Solving for linUz, Initial residual = 0.00114856, Final residual = 4.39865e-06, No Iterations 1
GAMG:  Solving for linP, Initial residual = 0.0477389, Final residual = 0.000304787, No Iterations 3
GAMG:  Solving for linP, Initial residual = 0.00061153, Final residual = 4.01543e-06, No Iterations 5
GAMG:  Solving for linP, Initial residual = 0.000156117, Final residual = 6.85773e-07, No Iterations 4
Adjoint continuity errors : sum local = 8.52594e-09, global = -2.49982e-09, cumulative = -3.47847e-08
GAMG:  Solving for linP, Initial residual = 0.00132658, Final residual = 1.29783e-05, No Iterations 2
GAMG:  Solving for linP, Initial residual = 5.3499e-05, Final residual = 9.28848e-07, No Iterations 3
GAMG:  Solving for linP, Initial residual = 1.7208e-05, Final residual = 4.97693e-07, No Iterations 2
Adjoint continuity errors : sum local = 6.19601e-09, global = -1.12738e-10, cumulative = -3.48974e-08
ExecutionTime = 57.53 s  ClockTime = 58 s

End

