/*---------------------------------------------------------------------------*\
| =========                 |                                                 |
| \\      /  F ield         | OpenFOAM: The Open Source CFD Toolbox           |
|  \\    /   O peration     | Version:  2.3.1                                 |
|   \\  /    A nd           | Web:      www.OpenFOAM.org                      |
|    \\/     M anipulation  |                                                 |
\*---------------------------------------------------------------------------*/
Build  : 2.3.1-262087cdf8db
Exec   : linearisedPimpleDyMFoam
Date   : Jun 06 2023
Time   : 02:08:08
Host   : "jcosson-VirtualBox"
PID    : 22192
Case   : /home/jcosson/workspace/henersj_shootingdata/calcs/moderate_deformed/primal/100_intervals_05-06-23/sweep52/interval79
nProcs : 1
sigFpe : Enabling floating point exception trapping (FOAM_SIGFPE).
fileModificationChecking : Monitoring run-time modified files using timeStampMaster
allowSystemOperations : Allowing user-supplied system call operations

// * * * * * * * * * * * * * * * * * * * * * * * * * * * * * * * * * * * * * //
Create time

Create mesh for time = 0.478

Selecting dynamicFvMesh dynamicMotionSolverFvMesh
Selecting motion solver: displacementLaplacian
Selecting motion diffusion: quadratic
Selecting motion diffusion: quadratic
Selecting motion diffusion: inverseDistance
Reading field linP

Reading field linU

starte createPhia.H

Reading/calculating face flux field linPhi

Adjungierte Interpolation durchgefuehrt

createPhia.H verlassen

setRefCell ausgefuehrt

No finite volume options present


PIMPLE: no residual control data found. Calculations will employ 3 corrector loops


Starting time loop

Time = 0.479

Reading field p

Reading field U

Read primal fluxes 

Reading primal face flux fields phi/meshPhi

Created primal fluxes 

Selecting incompressible transport model Newtonian
singlePhaseTransportModel gewaehlt 

Selecting turbulence model type RASModel
Selecting RAS turbulence model kOmegaSST
bounding k, min: 0 max: 0.000732824 average: 0.000160084
kOmegaSSTCoeffs
{
    alphaK1         0.85034;
    alphaK2         1;
    alphaOmega1     0.5;
    alphaOmega2     0.85616;
    gamma1          0.5532;
    gamma2          0.4403;
    beta1           0.075;
    beta2           0.0828;
    betaStar        0.09;
    a1              0.31;
    c1              10;
    Cmu             0.09;
    b1              1;
    F3              false;
}

autoPtr ausgefuehrt

Reading/calculating face velocity Uf

Init adjoint face velocity linUf

Courant Number mean: 0.166556 max: 0.365552
Adjoint Courant Number mean: 0.000121955 max: 0.00156125
GAMG:  Solving for cellDisplacementx, Initial residual = 0, Final residual = 0, No Iterations 0
GAMG:  Solving for cellDisplacementy, Initial residual = 0, Final residual = 0, No Iterations 0
GAMG:  Solving for cellDisplacementz, Initial residual = 0, Final residual = 0, No Iterations 0
PIMPLE: iteration 1
DILUPBiCG:  Solving for linUx, Initial residual = 0.0260903, Final residual = 9.67825e-05, No Iterations 1
DILUPBiCG:  Solving for linUy, Initial residual = 0.0518769, Final residual = 0.000138271, No Iterations 1
DILUPBiCG:  Solving for linUz, Initial residual = 0.108937, Final residual = 0.000232816, No Iterations 1
GAMG:  Solving for linP, Initial residual = 1, Final residual = 0.00875409, No Iterations 2
GAMG:  Solving for linP, Initial residual = 0.0145434, Final residual = 0.000126751, No Iterations 4
GAMG:  Solving for linP, Initial residual = 0.0047306, Final residual = 3.83482e-05, No Iterations 3
Adjoint continuity errors : sum local = 4.37403e-09, global = 1.46831e-11, cumulative = 1.46831e-11
GAMG:  Solving for linP, Initial residual = 0.0288483, Final residual = 0.000223334, No Iterations 3
GAMG:  Solving for linP, Initial residual = 0.00333611, Final residual = 2.60654e-05, No Iterations 4
GAMG:  Solving for linP, Initial residual = 0.00115406, Final residual = 6.51169e-06, No Iterations 4
Adjoint continuity errors : sum local = 7.15785e-10, global = -4.28642e-11, cumulative = -2.81811e-11
PIMPLE: iteration 2
DILUPBiCG:  Solving for linUx, Initial residual = 0.00222355, Final residual = 1.05478e-06, No Iterations 2
DILUPBiCG:  Solving for linUy, Initial residual = 0.00457516, Final residual = 4.42837e-05, No Iterations 1
DILUPBiCG:  Solving for linUz, Initial residual = 0.00791681, Final residual = 1.97713e-05, No Iterations 1
GAMG:  Solving for linP, Initial residual = 0.0295544, Final residual = 8.57606e-05, No Iterations 3
GAMG:  Solving for linP, Initial residual = 0.00169404, Final residual = 6.26159e-06, No Iterations 4
GAMG:  Solving for linP, Initial residual = 0.000478751, Final residual = 2.16436e-06, No Iterations 4
Adjoint continuity errors : sum local = 2.45766e-10, global = -2.68153e-11, cumulative = -5.49964e-11
GAMG:  Solving for linP, Initial residual = 0.00136404, Final residual = 9.99286e-06, No Iterations 3
GAMG:  Solving for linP, Initial residual = 0.000277008, Final residual = 1.66584e-06, No Iterations 4
GAMG:  Solving for linP, Initial residual = 8.71952e-05, Final residual = 7.18904e-07, No Iterations 3
Adjoint continuity errors : sum local = 8.15589e-11, global = -2.18892e-12, cumulative = -5.71853e-11
PIMPLE: iteration 3
DILUPBiCG:  Solving for linUx, Initial residual = 0.000298849, Final residual = 2.6841e-06, No Iterations 1
DILUPBiCG:  Solving for linUy, Initial residual = 0.00056486, Final residual = 7.41317e-06, No Iterations 1
DILUPBiCG:  Solving for linUz, Initial residual = 0.000921695, Final residual = 6.10572e-06, No Iterations 1
GAMG:  Solving for linP, Initial residual = 0.0374358, Final residual = 0.00025184, No Iterations 2
GAMG:  Solving for linP, Initial residual = 0.00124718, Final residual = 5.10999e-06, No Iterations 4
GAMG:  Solving for linP, Initial residual = 0.000418807, Final residual = 1.49156e-06, No Iterations 4
Adjoint continuity errors : sum local = 1.75534e-10, global = 3.8786e-11, cumulative = -1.83993e-11
GAMG:  Solving for linP, Initial residual = 0.00149693, Final residual = 7.18171e-06, No Iterations 3
GAMG:  Solving for linP, Initial residual = 0.000149903, Final residual = 7.6499e-07, No Iterations 4
GAMG:  Solving for linP, Initial residual = 5.37614e-05, Final residual = 5.73349e-07, No Iterations 3
Adjoint continuity errors : sum local = 6.76182e-11, global = 5.13776e-12, cumulative = -1.32615e-11
ExecutionTime = 11.98 s  ClockTime = 12 s

End

