/*---------------------------------------------------------------------------*\
| =========                 |                                                 |
| \\      /  F ield         | OpenFOAM: The Open Source CFD Toolbox           |
|  \\    /   O peration     | Version:  2.3.1                                 |
|   \\  /    A nd           | Web:      www.OpenFOAM.org                      |
|    \\/     M anipulation  |                                                 |
\*---------------------------------------------------------------------------*/
Build  : 2.3.1-262087cdf8db
Exec   : pimpleDyMFoam
Date   : Jun 06 2023
Time   : 02:06:43
Host   : "jcosson-VirtualBox"
PID    : 21172
Case   : /home/jcosson/workspace/henersj_shootingdata/calcs/moderate_deformed/primal/100_intervals_05-06-23/sweep52/interval71
nProcs : 1
sigFpe : Enabling floating point exception trapping (FOAM_SIGFPE).
fileModificationChecking : Monitoring run-time modified files using timeStampMaster
allowSystemOperations : Allowing user-supplied system call operations

// * * * * * * * * * * * * * * * * * * * * * * * * * * * * * * * * * * * * * //
Create time

Create mesh for time = 0.47

Selecting dynamicFvMesh dynamicMotionSolverFvMesh
Selecting motion solver: displacementLaplacian
Selecting motion diffusion: quadratic
Selecting motion diffusion: quadratic
Selecting motion diffusion: inverseDistance

PIMPLE: no residual control data found. Calculations will employ 3 corrector loops

Reading field p

Reading field U

Reading/calculating face flux field phi

Selecting incompressible transport model Newtonian
Selecting turbulence model type RASModel
Selecting RAS turbulence model kOmegaSST
kOmegaSSTCoeffs
{
    alphaK1         0.85034;
    alphaK2         1;
    alphaOmega1     0.5;
    alphaOmega2     0.85616;
    gamma1          0.5532;
    gamma2          0.4403;
    beta1           0.075;
    beta2           0.0828;
    betaStar        0.09;
    a1              0.31;
    c1              10;
    Cmu             0.09;
    b1              1;
    F3              false;
}

Reading/calculating face velocity Uf

No finite volume options present

Courant Number mean: 0.217095 max: 0.481379

Starting time loop

Courant Number mean: 0.217095 max: 0.481379
Time = 0.471

GAMG:  Solving for cellDisplacementx, Initial residual = 0, Final residual = 0, No Iterations 0
GAMG:  Solving for cellDisplacementy, Initial residual = 0, Final residual = 0, No Iterations 0
GAMG:  Solving for cellDisplacementz, Initial residual = 0, Final residual = 0, No Iterations 0
PIMPLE: iteration 1
DILUPBiCG:  Solving for Ux, Initial residual = 0.0492444, Final residual = 0.000204677, No Iterations 1
DILUPBiCG:  Solving for Uy, Initial residual = 0.0080579, Final residual = 1.87477e-05, No Iterations 1
DILUPBiCG:  Solving for Uz, Initial residual = 0.012758, Final residual = 2.94486e-05, No Iterations 1
GAMG:  Solving for p, Initial residual = 0.129972, Final residual = 0.0010237, No Iterations 6
GAMG:  Solving for p, Initial residual = 0.0150356, Final residual = 0.000149624, No Iterations 18
GAMG:  Solving for p, Initial residual = 0.00650689, Final residual = 5.93398e-05, No Iterations 12
time step continuity errors : sum local = 8.44203e-07, global = 2.54156e-07, cumulative = 2.54156e-07
GAMG:  Solving for p, Initial residual = 0.0548441, Final residual = 0.000343705, No Iterations 6
GAMG:  Solving for p, Initial residual = 0.00759907, Final residual = 7.15608e-05, No Iterations 16
GAMG:  Solving for p, Initial residual = 0.00337981, Final residual = 2.94632e-05, No Iterations 12
time step continuity errors : sum local = 4.18784e-07, global = 1.25277e-07, cumulative = 3.79433e-07
PIMPLE: iteration 2
DILUPBiCG:  Solving for Ux, Initial residual = 0.0144212, Final residual = 8.38153e-05, No Iterations 1
DILUPBiCG:  Solving for Uy, Initial residual = 0.00248817, Final residual = 5.74876e-06, No Iterations 1
DILUPBiCG:  Solving for Uz, Initial residual = 0.0036353, Final residual = 1.25609e-05, No Iterations 1
GAMG:  Solving for p, Initial residual = 0.0553323, Final residual = 0.000473378, No Iterations 4
GAMG:  Solving for p, Initial residual = 0.00900787, Final residual = 8.50567e-05, No Iterations 16
GAMG:  Solving for p, Initial residual = 0.00410596, Final residual = 3.96836e-05, No Iterations 8
time step continuity errors : sum local = 4.7983e-07, global = -1.44915e-07, cumulative = 2.34519e-07
GAMG:  Solving for p, Initial residual = 0.0284081, Final residual = 0.000205638, No Iterations 4
GAMG:  Solving for p, Initial residual = 0.00445918, Final residual = 3.90747e-05, No Iterations 14
GAMG:  Solving for p, Initial residual = 0.00192397, Final residual = 1.88828e-05, No Iterations 8
time step continuity errors : sum local = 2.29583e-07, global = -6.43267e-08, cumulative = 1.70192e-07
PIMPLE: iteration 3
DILUPBiCG:  Solving for Ux, Initial residual = 0.0035937, Final residual = 1.77555e-06, No Iterations 2
DILUPBiCG:  Solving for Uy, Initial residual = 0.000619591, Final residual = 6.84519e-06, No Iterations 1
DILUPBiCG:  Solving for Uz, Initial residual = 0.00718213, Final residual = 2.95058e-06, No Iterations 2
GAMG:  Solving for p, Initial residual = 0.0402834, Final residual = 0.000327206, No Iterations 5
GAMG:  Solving for p, Initial residual = 0.00906078, Final residual = 8.8222e-05, No Iterations 13
GAMG:  Solving for p, Initial residual = 0.00437231, Final residual = 3.60729e-05, No Iterations 12
time step continuity errors : sum local = 4.8975e-07, global = -1.42781e-07, cumulative = 2.74114e-08
GAMG:  Solving for p, Initial residual = 0.00247343, Final residual = 2.42622e-05, No Iterations 18
GAMG:  Solving for p, Initial residual = 0.00137199, Final residual = 1.30256e-05, No Iterations 4
GAMG:  Solving for p, Initial residual = 0.00054867, Final residual = 9.72616e-07, No Iterations 36
time step continuity errors : sum local = 1.31437e-08, global = 3.86832e-09, cumulative = 3.12797e-08
DILUPBiCG:  Solving for omega, Initial residual = 0.000500794, Final residual = 6.21815e-07, No Iterations 1
DILUPBiCG:  Solving for k, Initial residual = 0.00462317, Final residual = 1.72288e-06, No Iterations 2
ExecutionTime = 17.87 s  ClockTime = 18 s

End

