/*---------------------------------------------------------------------------*\
| =========                 |                                                 |
| \\      /  F ield         | OpenFOAM: The Open Source CFD Toolbox           |
|  \\    /   O peration     | Version:  2.3.1                                 |
|   \\  /    A nd           | Web:      www.OpenFOAM.org                      |
|    \\/     M anipulation  |                                                 |
\*---------------------------------------------------------------------------*/
Build  : 2.3.1-262087cdf8db
Exec   : linearisedPimpleDyMFoam
Date   : Jun 06 2023
Time   : 00:48:46
Host   : "jcosson-VirtualBox"
PID    : 14259
Case   : /home/jcosson/workspace/henersj_shootingdata/calcs/moderate_deformed/primal/100_intervals_05-06-23/sweep23/interval64
nProcs : 1
sigFpe : Enabling floating point exception trapping (FOAM_SIGFPE).
fileModificationChecking : Monitoring run-time modified files using timeStampMaster
allowSystemOperations : Allowing user-supplied system call operations

// * * * * * * * * * * * * * * * * * * * * * * * * * * * * * * * * * * * * * //
Create time

Create mesh for time = 0.463

Selecting dynamicFvMesh dynamicMotionSolverFvMesh
Selecting motion solver: displacementLaplacian
Selecting motion diffusion: quadratic
Selecting motion diffusion: quadratic
Selecting motion diffusion: inverseDistance
Reading field linP

Reading field linU

starte createPhia.H

Reading/calculating face flux field linPhi

Adjungierte Interpolation durchgefuehrt

createPhia.H verlassen

setRefCell ausgefuehrt

No finite volume options present


PIMPLE: no residual control data found. Calculations will employ 3 corrector loops


Starting time loop

Time = 0.464

Reading field p

Reading field U

Read primal fluxes 

Reading primal face flux fields phi/meshPhi

Created primal fluxes 

Selecting incompressible transport model Newtonian
singlePhaseTransportModel gewaehlt 

Selecting turbulence model type RASModel
Selecting RAS turbulence model kOmegaSST
kOmegaSSTCoeffs
{
    alphaK1         0.85034;
    alphaK2         1;
    alphaOmega1     0.5;
    alphaOmega2     0.85616;
    gamma1          0.5532;
    gamma2          0.4403;
    beta1           0.075;
    beta2           0.0828;
    betaStar        0.09;
    a1              0.31;
    c1              10;
    Cmu             0.09;
    b1              1;
    F3              false;
}

autoPtr ausgefuehrt

Reading/calculating face velocity Uf

Init adjoint face velocity linUf

Courant Number mean: 0.246916 max: 0.544994
Adjoint Courant Number mean: 0.00018218 max: 0.00524673
GAMG:  Solving for cellDisplacementx, Initial residual = 0, Final residual = 0, No Iterations 0
GAMG:  Solving for cellDisplacementy, Initial residual = 0, Final residual = 0, No Iterations 0
GAMG:  Solving for cellDisplacementz, Initial residual = 0, Final residual = 0, No Iterations 0
PIMPLE: iteration 1
DILUPBiCG:  Solving for linUx, Initial residual = 0.0466531, Final residual = 0.000132674, No Iterations 1
DILUPBiCG:  Solving for linUy, Initial residual = 0.0849124, Final residual = 0.000188355, No Iterations 1
DILUPBiCG:  Solving for linUz, Initial residual = 0.110179, Final residual = 0.000266356, No Iterations 1
GAMG:  Solving for linP, Initial residual = 1, Final residual = 0.00991932, No Iterations 2
GAMG:  Solving for linP, Initial residual = 0.0139283, Final residual = 8.78275e-05, No Iterations 4
GAMG:  Solving for linP, Initial residual = 0.0050834, Final residual = 3.45052e-05, No Iterations 4
Adjoint continuity errors : sum local = 9.74928e-09, global = -1.17528e-09, cumulative = -1.17528e-09
GAMG:  Solving for linP, Initial residual = 0.035863, Final residual = 0.000236957, No Iterations 3
GAMG:  Solving for linP, Initial residual = 0.00411148, Final residual = 1.93294e-05, No Iterations 4
GAMG:  Solving for linP, Initial residual = 0.00132434, Final residual = 4.90613e-06, No Iterations 4
Adjoint continuity errors : sum local = 1.3272e-09, global = 3.24748e-10, cumulative = -8.50528e-10
PIMPLE: iteration 2
DILUPBiCG:  Solving for linUx, Initial residual = 0.00595305, Final residual = 2.16645e-05, No Iterations 1
DILUPBiCG:  Solving for linUy, Initial residual = 0.0129019, Final residual = 3.49716e-05, No Iterations 1
DILUPBiCG:  Solving for linUz, Initial residual = 0.0142829, Final residual = 4.49263e-05, No Iterations 1
GAMG:  Solving for linP, Initial residual = 0.0486224, Final residual = 0.000475854, No Iterations 2
GAMG:  Solving for linP, Initial residual = 0.00268214, Final residual = 1.39788e-05, No Iterations 4
GAMG:  Solving for linP, Initial residual = 0.000860823, Final residual = 4.61068e-06, No Iterations 4
Adjoint continuity errors : sum local = 1.2632e-09, global = 1.79306e-10, cumulative = -6.71222e-10
GAMG:  Solving for linP, Initial residual = 0.00309784, Final residual = 2.11369e-05, No Iterations 3
GAMG:  Solving for linP, Initial residual = 0.000499744, Final residual = 1.95293e-06, No Iterations 4
GAMG:  Solving for linP, Initial residual = 0.000161977, Final residual = 8.28907e-07, No Iterations 4
Adjoint continuity errors : sum local = 2.27134e-10, global = -4.12717e-11, cumulative = -7.12494e-10
PIMPLE: iteration 3
DILUPBiCG:  Solving for linUx, Initial residual = 0.00101799, Final residual = 6.73353e-06, No Iterations 1
DILUPBiCG:  Solving for linUy, Initial residual = 0.00229759, Final residual = 6.19082e-07, No Iterations 2
DILUPBiCG:  Solving for linUz, Initial residual = 0.00194495, Final residual = 7.78731e-06, No Iterations 1
GAMG:  Solving for linP, Initial residual = 0.0430248, Final residual = 0.000355161, No Iterations 2
GAMG:  Solving for linP, Initial residual = 0.00158405, Final residual = 1.48339e-05, No Iterations 3
GAMG:  Solving for linP, Initial residual = 0.000550122, Final residual = 4.764e-06, No Iterations 3
Adjoint continuity errors : sum local = 1.33992e-09, global = 1.34277e-10, cumulative = -5.78217e-10
GAMG:  Solving for linP, Initial residual = 0.00218217, Final residual = 7.59636e-06, No Iterations 3
GAMG:  Solving for linP, Initial residual = 0.000193162, Final residual = 1.86151e-06, No Iterations 3
GAMG:  Solving for linP, Initial residual = 6.89039e-05, Final residual = 4.60453e-07, No Iterations 4
Adjoint continuity errors : sum local = 1.29849e-10, global = 1.60163e-11, cumulative = -5.62201e-10
ExecutionTime = 11.25 s  ClockTime = 12 s

End

