/*---------------------------------------------------------------------------*\
| =========                 |                                                 |
| \\      /  F ield         | OpenFOAM: The Open Source CFD Toolbox           |
|  \\    /   O peration     | Version:  2.3.1                                 |
|   \\  /    A nd           | Web:      www.OpenFOAM.org                      |
|    \\/     M anipulation  |                                                 |
\*---------------------------------------------------------------------------*/
Build  : 2.3.1-262087cdf8db
Exec   : pimpleDyMFoam
Date   : Jun 06 2023
Time   : 00:46:43
Host   : "jcosson-VirtualBox"
PID    : 12728
Case   : /home/jcosson/workspace/henersj_shootingdata/calcs/moderate_deformed/primal/100_intervals_05-06-23/sweep23/interval55
nProcs : 1
sigFpe : Enabling floating point exception trapping (FOAM_SIGFPE).
fileModificationChecking : Monitoring run-time modified files using timeStampMaster
allowSystemOperations : Allowing user-supplied system call operations

// * * * * * * * * * * * * * * * * * * * * * * * * * * * * * * * * * * * * * //
Create time

Create mesh for time = 0.454

Selecting dynamicFvMesh dynamicMotionSolverFvMesh
Selecting motion solver: displacementLaplacian
Selecting motion diffusion: quadratic
Selecting motion diffusion: quadratic
Selecting motion diffusion: inverseDistance

PIMPLE: no residual control data found. Calculations will employ 3 corrector loops

Reading field p

Reading field U

Reading/calculating face flux field phi

Selecting incompressible transport model Newtonian
Selecting turbulence model type RASModel
Selecting RAS turbulence model kOmegaSST
kOmegaSSTCoeffs
{
    alphaK1         0.85034;
    alphaK2         1;
    alphaOmega1     0.5;
    alphaOmega2     0.85616;
    gamma1          0.5532;
    gamma2          0.4403;
    beta1           0.075;
    beta2           0.0828;
    betaStar        0.09;
    a1              0.31;
    c1              10;
    Cmu             0.09;
    b1              1;
    F3              false;
}

Reading/calculating face velocity Uf

No finite volume options present

Courant Number mean: 0.276938 max: 0.610977

Starting time loop

Courant Number mean: 0.276938 max: 0.610977
Time = 0.455

GAMG:  Solving for cellDisplacementx, Initial residual = 0, Final residual = 0, No Iterations 0
GAMG:  Solving for cellDisplacementy, Initial residual = 0, Final residual = 0, No Iterations 0
GAMG:  Solving for cellDisplacementz, Initial residual = 0, Final residual = 0, No Iterations 0
PIMPLE: iteration 1
DILUPBiCG:  Solving for Ux, Initial residual = 0.0090056, Final residual = 3.34073e-05, No Iterations 1
DILUPBiCG:  Solving for Uy, Initial residual = 0.00149727, Final residual = 4.31416e-06, No Iterations 1
DILUPBiCG:  Solving for Uz, Initial residual = 0.0167562, Final residual = 4.43999e-05, No Iterations 1
GAMG:  Solving for p, Initial residual = 0.215495, Final residual = 0.00173851, No Iterations 6
GAMG:  Solving for p, Initial residual = 0.0306491, Final residual = 0.000302124, No Iterations 14
GAMG:  Solving for p, Initial residual = 0.01188, Final residual = 0.000116513, No Iterations 12
time step continuity errors : sum local = 5.15133e-07, global = 1.55118e-07, cumulative = 1.55118e-07
GAMG:  Solving for p, Initial residual = 0.0846569, Final residual = 0.000535517, No Iterations 6
GAMG:  Solving for p, Initial residual = 0.0151595, Final residual = 0.000142885, No Iterations 12
GAMG:  Solving for p, Initial residual = 0.00614258, Final residual = 5.55087e-05, No Iterations 12
time step continuity errors : sum local = 2.4408e-07, global = 7.29079e-08, cumulative = 2.28026e-07
PIMPLE: iteration 2
DILUPBiCG:  Solving for Ux, Initial residual = 0.0032185, Final residual = 2.68884e-05, No Iterations 1
DILUPBiCG:  Solving for Uy, Initial residual = 0.000548815, Final residual = 2.99869e-06, No Iterations 1
DILUPBiCG:  Solving for Uz, Initial residual = 0.00468776, Final residual = 1.46443e-05, No Iterations 1
GAMG:  Solving for p, Initial residual = 0.0878244, Final residual = 0.000764143, No Iterations 3
GAMG:  Solving for p, Initial residual = 0.0157051, Final residual = 0.000103223, No Iterations 4
GAMG:  Solving for p, Initial residual = 0.00663264, Final residual = 5.45971e-05, No Iterations 5
time step continuity errors : sum local = 2.08294e-07, global = 3.43458e-08, cumulative = 2.62371e-07
GAMG:  Solving for p, Initial residual = 0.0429987, Final residual = 0.00031736, No Iterations 3
GAMG:  Solving for p, Initial residual = 0.00768414, Final residual = 5.46394e-05, No Iterations 4
GAMG:  Solving for p, Initial residual = 0.00331371, Final residual = 2.55548e-05, No Iterations 5
time step continuity errors : sum local = 9.7945e-08, global = 1.61462e-08, cumulative = 2.78517e-07
PIMPLE: iteration 3
DILUPBiCG:  Solving for Ux, Initial residual = 0.00106245, Final residual = 3.00967e-07, No Iterations 2
DILUPBiCG:  Solving for Uy, Initial residual = 0.000179669, Final residual = 3.69982e-06, No Iterations 1
DILUPBiCG:  Solving for Uz, Initial residual = 0.00255029, Final residual = 1.45477e-06, No Iterations 2
GAMG:  Solving for p, Initial residual = 0.057912, Final residual = 0.000386615, No Iterations 4
GAMG:  Solving for p, Initial residual = 0.0135009, Final residual = 0.000122102, No Iterations 4
GAMG:  Solving for p, Initial residual = 0.00597145, Final residual = 5.2248e-05, No Iterations 14
time step continuity errors : sum local = 2.17523e-07, global = -6.73355e-08, cumulative = 2.11182e-07
GAMG:  Solving for p, Initial residual = 0.00460127, Final residual = 4.4789e-05, No Iterations 9
GAMG:  Solving for p, Initial residual = 0.00239075, Final residual = 2.26806e-05, No Iterations 6
GAMG:  Solving for p, Initial residual = 0.000876028, Final residual = 9.58697e-07, No Iterations 38
time step continuity errors : sum local = 3.94039e-09, global = 1.16915e-09, cumulative = 2.12351e-07
DILUPBiCG:  Solving for omega, Initial residual = 0.000909558, Final residual = 1.35159e-06, No Iterations 1
DILUPBiCG:  Solving for k, Initial residual = 0.00460147, Final residual = 2.48376e-06, No Iterations 2
ExecutionTime = 16.5 s  ClockTime = 17 s

End

