/*---------------------------------------------------------------------------*\
| =========                 |                                                 |
| \\      /  F ield         | OpenFOAM: The Open Source CFD Toolbox           |
|  \\    /   O peration     | Version:  2.3.1                                 |
|   \\  /    A nd           | Web:      www.OpenFOAM.org                      |
|    \\/     M anipulation  |                                                 |
\*---------------------------------------------------------------------------*/
Build  : 2.3.1-262087cdf8db
Exec   : pimpleDyMFoam
Date   : Jun 06 2023
Time   : 01:42:28
Host   : "jcosson-VirtualBox"
PID    : 8971
Case   : /home/jcosson/workspace/henersj_shootingdata/calcs/moderate_deformed/primal/100_intervals_05-06-23/sweep42/interval52
nProcs : 1
sigFpe : Enabling floating point exception trapping (FOAM_SIGFPE).
fileModificationChecking : Monitoring run-time modified files using timeStampMaster
allowSystemOperations : Allowing user-supplied system call operations

// * * * * * * * * * * * * * * * * * * * * * * * * * * * * * * * * * * * * * //
Create time

Create mesh for time = 0.451

Selecting dynamicFvMesh dynamicMotionSolverFvMesh
Selecting motion solver: displacementLaplacian
Selecting motion diffusion: quadratic
Selecting motion diffusion: quadratic
Selecting motion diffusion: inverseDistance

PIMPLE: no residual control data found. Calculations will employ 3 corrector loops

Reading field p

Reading field U

Reading/calculating face flux field phi

Selecting incompressible transport model Newtonian
Selecting turbulence model type RASModel
Selecting RAS turbulence model kOmegaSST
kOmegaSSTCoeffs
{
    alphaK1         0.85034;
    alphaK2         1;
    alphaOmega1     0.5;
    alphaOmega2     0.85616;
    gamma1          0.5532;
    gamma2          0.4403;
    beta1           0.075;
    beta2           0.0828;
    betaStar        0.09;
    a1              0.31;
    c1              10;
    Cmu             0.09;
    b1              1;
    F3              false;
}

Reading/calculating face velocity Uf

No finite volume options present

Courant Number mean: 0.279841 max: 0.620617

Starting time loop

Courant Number mean: 0.279841 max: 0.620617
Time = 0.452

GAMG:  Solving for cellDisplacementx, Initial residual = 0, Final residual = 0, No Iterations 0
GAMG:  Solving for cellDisplacementy, Initial residual = 0, Final residual = 0, No Iterations 0
GAMG:  Solving for cellDisplacementz, Initial residual = 0, Final residual = 0, No Iterations 0
PIMPLE: iteration 1
DILUPBiCG:  Solving for Ux, Initial residual = 0.00128517, Final residual = 8.39584e-06, No Iterations 1
DILUPBiCG:  Solving for Uy, Initial residual = 0.0003667, Final residual = 6.68197e-06, No Iterations 1
DILUPBiCG:  Solving for Uz, Initial residual = 0.0121215, Final residual = 2.92163e-05, No Iterations 1
GAMG:  Solving for p, Initial residual = 0.28247, Final residual = 0.00250775, No Iterations 4
GAMG:  Solving for p, Initial residual = 0.0429161, Final residual = 0.000400698, No Iterations 16
GAMG:  Solving for p, Initial residual = 0.0213596, Final residual = 0.000190168, No Iterations 4
time step continuity errors : sum local = 4.88483e-07, global = 1.79676e-07, cumulative = 1.79676e-07
GAMG:  Solving for p, Initial residual = 0.114542, Final residual = 0.000934488, No Iterations 4
GAMG:  Solving for p, Initial residual = 0.022351, Final residual = 0.000202321, No Iterations 12
GAMG:  Solving for p, Initial residual = 0.00954691, Final residual = 8.86115e-05, No Iterations 10
time step continuity errors : sum local = 2.26876e-07, global = 5.82096e-08, cumulative = 2.37885e-07
PIMPLE: iteration 2
DILUPBiCG:  Solving for Ux, Initial residual = 0.00087168, Final residual = 3.61596e-06, No Iterations 1
DILUPBiCG:  Solving for Uy, Initial residual = 0.000179658, Final residual = 1.49392e-06, No Iterations 1
DILUPBiCG:  Solving for Uz, Initial residual = 0.00396359, Final residual = 1.20216e-05, No Iterations 1
GAMG:  Solving for p, Initial residual = 0.117649, Final residual = 0.000479773, No Iterations 4
GAMG:  Solving for p, Initial residual = 0.0214314, Final residual = 0.000195488, No Iterations 8
GAMG:  Solving for p, Initial residual = 0.00826311, Final residual = 7.77518e-05, No Iterations 10
time step continuity errors : sum local = 1.85191e-07, global = 4.68741e-08, cumulative = 2.84759e-07
GAMG:  Solving for p, Initial residual = 0.0551888, Final residual = 0.000543516, No Iterations 3
GAMG:  Solving for p, Initial residual = 0.0111211, Final residual = 0.000104981, No Iterations 7
GAMG:  Solving for p, Initial residual = 0.0041822, Final residual = 3.51697e-05, No Iterations 12
time step continuity errors : sum local = 8.39253e-08, global = 2.40564e-08, cumulative = 3.08816e-07
PIMPLE: iteration 3
DILUPBiCG:  Solving for Ux, Initial residual = 0.000472086, Final residual = 8.68405e-06, No Iterations 1
DILUPBiCG:  Solving for Uy, Initial residual = 8.9963e-05, Final residual = 1.18231e-06, No Iterations 1
DILUPBiCG:  Solving for Uz, Initial residual = 0.00141262, Final residual = 7.11306e-06, No Iterations 1
GAMG:  Solving for p, Initial residual = 0.100253, Final residual = 0.000717349, No Iterations 3
GAMG:  Solving for p, Initial residual = 0.0220923, Final residual = 0.000152281, No Iterations 4
GAMG:  Solving for p, Initial residual = 0.00966731, Final residual = 6.67023e-05, No Iterations 4
time step continuity errors : sum local = 1.5783e-07, global = -3.73135e-08, cumulative = 2.71502e-07
GAMG:  Solving for p, Initial residual = 0.00730606, Final residual = 6.28208e-05, No Iterations 4
GAMG:  Solving for p, Initial residual = 0.00374753, Final residual = 2.12186e-05, No Iterations 4
GAMG:  Solving for p, Initial residual = 0.00129221, Final residual = 8.33351e-07, No Iterations 11
time step continuity errors : sum local = 1.96192e-09, global = 4.23849e-10, cumulative = 2.71926e-07
DILUPBiCG:  Solving for omega, Initial residual = 0.00100299, Final residual = 1.42582e-06, No Iterations 1
DILUPBiCG:  Solving for k, Initial residual = 0.00501129, Final residual = 1.01744e-06, No Iterations 2
ExecutionTime = 15.55 s  ClockTime = 16 s

End

