/*---------------------------------------------------------------------------*\
| =========                 |                                                 |
| \\      /  F ield         | OpenFOAM: The Open Source CFD Toolbox           |
|  \\    /   O peration     | Version:  2.3.1                                 |
|   \\  /    A nd           | Web:      www.OpenFOAM.org                      |
|    \\/     M anipulation  |                                                 |
\*---------------------------------------------------------------------------*/
Build  : 2.3.1-262087cdf8db
Exec   : pimpleDyMFoam
Date   : Jun 05 2023
Time   : 18:39:16
Host   : "jcosson-VirtualBox"
PID    : 21375
Case   : /home/jcosson/workspace/henersj_shootingdata/calcs/moderate_deformed/primal/56_intervals_05-06-23/sweep18/interval24
nProcs : 1
sigFpe : Enabling floating point exception trapping (FOAM_SIGFPE).
fileModificationChecking : Monitoring run-time modified files using timeStampMaster
allowSystemOperations : Allowing user-supplied system call operations

// * * * * * * * * * * * * * * * * * * * * * * * * * * * * * * * * * * * * * //
Create time

Create mesh for time = 0.441

Selecting dynamicFvMesh dynamicMotionSolverFvMesh
Selecting motion solver: displacementLaplacian
Selecting motion diffusion: quadratic
Selecting motion diffusion: quadratic
Selecting motion diffusion: inverseDistance

PIMPLE: no residual control data found. Calculations will employ 3 corrector loops

Reading field p

Reading field U

Reading/calculating face flux field phi

Selecting incompressible transport model Newtonian
Selecting turbulence model type RASModel
Selecting RAS turbulence model kOmegaSST
kOmegaSSTCoeffs
{
    alphaK1         0.85034;
    alphaK2         1;
    alphaOmega1     0.5;
    alphaOmega2     0.85616;
    gamma1          0.5532;
    gamma2          0.4403;
    beta1           0.075;
    beta2           0.0828;
    betaStar        0.09;
    a1              0.31;
    c1              10;
    Cmu             0.09;
    b1              1;
    F3              false;
}

Reading/calculating face velocity Uf

No finite volume options present

Courant Number mean: 0.265597 max: 0.584336

Starting time loop

Courant Number mean: 0.265597 max: 0.584336
Time = 0.442

GAMG:  Solving for cellDisplacementx, Initial residual = 0, Final residual = 0, No Iterations 0
GAMG:  Solving for cellDisplacementy, Initial residual = 0, Final residual = 0, No Iterations 0
GAMG:  Solving for cellDisplacementz, Initial residual = 0, Final residual = 0, No Iterations 0
PIMPLE: iteration 1
DILUPBiCG:  Solving for Ux, Initial residual = 0.0248611, Final residual = 8.44261e-05, No Iterations 1
DILUPBiCG:  Solving for Uy, Initial residual = 0.00387085, Final residual = 1.10202e-05, No Iterations 1
DILUPBiCG:  Solving for Uz, Initial residual = 0.010627, Final residual = 2.10371e-05, No Iterations 1
GAMG:  Solving for p, Initial residual = 0.116881, Final residual = 0.000779432, No Iterations 4
GAMG:  Solving for p, Initial residual = 0.0166906, Final residual = 0.000146376, No Iterations 14
GAMG:  Solving for p, Initial residual = 0.0072569, Final residual = 7.04708e-05, No Iterations 10
time step continuity errors : sum local = 6.3685e-07, global = -1.73803e-07, cumulative = -1.73803e-07
GAMG:  Solving for p, Initial residual = 0.0526265, Final residual = 0.000305129, No Iterations 4
GAMG:  Solving for p, Initial residual = 0.00816036, Final residual = 7.44138e-05, No Iterations 12
GAMG:  Solving for p, Initial residual = 0.00363232, Final residual = 3.58696e-05, No Iterations 10
time step continuity errors : sum local = 3.24942e-07, global = -8.95812e-08, cumulative = -2.63384e-07
PIMPLE: iteration 2
DILUPBiCG:  Solving for Ux, Initial residual = 0.00691294, Final residual = 2.71663e-05, No Iterations 1
DILUPBiCG:  Solving for Uy, Initial residual = 0.00110799, Final residual = 6.15131e-06, No Iterations 1
DILUPBiCG:  Solving for Uz, Initial residual = 0.00306814, Final residual = 9.91217e-06, No Iterations 1
GAMG:  Solving for p, Initial residual = 0.0524621, Final residual = 0.000519932, No Iterations 5
GAMG:  Solving for p, Initial residual = 0.013172, Final residual = 0.000125958, No Iterations 11
GAMG:  Solving for p, Initial residual = 0.00469489, Final residual = 4.27323e-05, No Iterations 14
time step continuity errors : sum local = 3.30303e-07, global = 1.00629e-07, cumulative = -1.62755e-07
GAMG:  Solving for p, Initial residual = 0.0276479, Final residual = 0.000256162, No Iterations 4
GAMG:  Solving for p, Initial residual = 0.0062139, Final residual = 5.40648e-05, No Iterations 12
GAMG:  Solving for p, Initial residual = 0.00225867, Final residual = 2.13788e-05, No Iterations 12
time step continuity errors : sum local = 1.66316e-07, global = 4.83275e-08, cumulative = -1.14427e-07
PIMPLE: iteration 3
DILUPBiCG:  Solving for Ux, Initial residual = 0.00148469, Final residual = 9.7382e-06, No Iterations 1
DILUPBiCG:  Solving for Uy, Initial residual = 0.000243643, Final residual = 8.08059e-06, No Iterations 1
DILUPBiCG:  Solving for Uz, Initial residual = 0.00471213, Final residual = 2.12551e-06, No Iterations 2
GAMG:  Solving for p, Initial residual = 0.048819, Final residual = 0.000382885, No Iterations 5
GAMG:  Solving for p, Initial residual = 0.0131167, Final residual = 0.000108643, No Iterations 12
GAMG:  Solving for p, Initial residual = 0.0057075, Final residual = 5.35828e-05, No Iterations 10
time step continuity errors : sum local = 4.5967e-07, global = 1.21355e-07, cumulative = 6.92746e-09
GAMG:  Solving for p, Initial residual = 0.00349775, Final residual = 3.05272e-05, No Iterations 16
GAMG:  Solving for p, Initial residual = 0.00207179, Final residual = 1.54676e-05, No Iterations 4
GAMG:  Solving for p, Initial residual = 0.000699182, Final residual = 9.76772e-07, No Iterations 38
time step continuity errors : sum local = 8.35053e-09, global = -2.46336e-09, cumulative = 4.4641e-09
DILUPBiCG:  Solving for omega, Initial residual = 0.00114423, Final residual = 1.4239e-06, No Iterations 1
DILUPBiCG:  Solving for k, Initial residual = 0.00639208, Final residual = 1.14919e-06, No Iterations 2
ExecutionTime = 17.56 s  ClockTime = 18 s

Courant Number mean: 0.268549 max: 0.591435
Time = 0.443

GAMG:  Solving for cellDisplacementx, Initial residual = 0, Final residual = 0, No Iterations 0
GAMG:  Solving for cellDisplacementy, Initial residual = 0, Final residual = 0, No Iterations 0
GAMG:  Solving for cellDisplacementz, Initial residual = 0, Final residual = 0, No Iterations 0
PIMPLE: iteration 1
DILUPBiCG:  Solving for Ux, Initial residual = 0.0223222, Final residual = 7.70708e-05, No Iterations 1
DILUPBiCG:  Solving for Uy, Initial residual = 0.00345229, Final residual = 1.01626e-05, No Iterations 1
DILUPBiCG:  Solving for Uz, Initial residual = 0.00992802, Final residual = 2.10463e-05, No Iterations 1
GAMG:  Solving for p, Initial residual = 0.0989562, Final residual = 0.000671973, No Iterations 4
GAMG:  Solving for p, Initial residual = 0.013448, Final residual = 0.000116108, No Iterations 16
GAMG:  Solving for p, Initial residual = 0.00618329, Final residual = 5.22226e-05, No Iterations 10
time step continuity errors : sum local = 4.3348e-07, global = -1.15338e-07, cumulative = -1.10874e-07
GAMG:  Solving for p, Initial residual = 0.0449226, Final residual = 0.000264431, No Iterations 4
GAMG:  Solving for p, Initial residual = 0.00653418, Final residual = 5.78697e-05, No Iterations 14
GAMG:  Solving for p, Initial residual = 0.00305044, Final residual = 2.78928e-05, No Iterations 10
time step continuity errors : sum local = 2.319e-07, global = -6.2604e-08, cumulative = -1.73478e-07
PIMPLE: iteration 2
DILUPBiCG:  Solving for Ux, Initial residual = 0.00615907, Final residual = 2.46797e-05, No Iterations 1
DILUPBiCG:  Solving for Uy, Initial residual = 0.00098812, Final residual = 6.14628e-06, No Iterations 1
DILUPBiCG:  Solving for Uz, Initial residual = 0.00305132, Final residual = 1.03607e-05, No Iterations 1
GAMG:  Solving for p, Initial residual = 0.0434445, Final residual = 0.00033668, No Iterations 6
GAMG:  Solving for p, Initial residual = 0.0117752, Final residual = 9.9928e-05, No Iterations 14
GAMG:  Solving for p, Initial residual = 0.00391465, Final residual = 3.44255e-05, No Iterations 14
time step continuity errors : sum local = 2.43971e-07, global = 7.54684e-08, cumulative = -9.80099e-08
GAMG:  Solving for p, Initial residual = 0.0229975, Final residual = 0.00021986, No Iterations 5
GAMG:  Solving for p, Initial residual = 0.00561194, Final residual = 5.19796e-05, No Iterations 11
GAMG:  Solving for p, Initial residual = 0.00174386, Final residual = 1.51414e-05, No Iterations 16
time step continuity errors : sum local = 1.08148e-07, global = 3.21388e-08, cumulative = -6.5871e-08
PIMPLE: iteration 3
DILUPBiCG:  Solving for Ux, Initial residual = 0.00128538, Final residual = 8.60619e-06, No Iterations 1
DILUPBiCG:  Solving for Uy, Initial residual = 0.000212282, Final residual = 7.47427e-06, No Iterations 1
DILUPBiCG:  Solving for Uz, Initial residual = 0.00399615, Final residual = 1.28789e-06, No Iterations 2
GAMG:  Solving for p, Initial residual = 0.0489197, Final residual = 0.000386504, No Iterations 5
GAMG:  Solving for p, Initial residual = 0.0133539, Final residual = 0.000115374, No Iterations 12
GAMG:  Solving for p, Initial residual = 0.00589667, Final residual = 5.83609e-05, No Iterations 10
time step continuity errors : sum local = 4.5899e-07, global = 1.22287e-07, cumulative = 5.64158e-08
GAMG:  Solving for p, Initial residual = 0.00354783, Final residual = 3.21699e-05, No Iterations 14
GAMG:  Solving for p, Initial residual = 0.00212902, Final residual = 1.63325e-05, No Iterations 4
GAMG:  Solving for p, Initial residual = 0.000718722, Final residual = 8.59535e-07, No Iterations 40
time step continuity errors : sum local = 6.73201e-09, global = -1.99058e-09, cumulative = 5.44252e-08
DILUPBiCG:  Solving for omega, Initial residual = 0.00116152, Final residual = 1.46773e-06, No Iterations 1
DILUPBiCG:  Solving for k, Initial residual = 0.00635704, Final residual = 1.07458e-06, No Iterations 2
ExecutionTime = 32.69 s  ClockTime = 33 s

End

