/*---------------------------------------------------------------------------*\
| =========                 |                                                 |
| \\      /  F ield         | OpenFOAM: The Open Source CFD Toolbox           |
|  \\    /   O peration     | Version:  2.3.1                                 |
|   \\  /    A nd           | Web:      www.OpenFOAM.org                      |
|    \\/     M anipulation  |                                                 |
\*---------------------------------------------------------------------------*/
Build  : 2.3.1-262087cdf8db
Exec   : pimpleDyMFoam
Date   : Jun 05 2023
Time   : 18:39:32
Host   : "jcosson-VirtualBox"
PID    : 21386
Case   : /home/jcosson/workspace/henersj_shootingdata/calcs/moderate_deformed/primal/56_intervals_05-06-23/sweep18/interval32
nProcs : 1
sigFpe : Enabling floating point exception trapping (FOAM_SIGFPE).
fileModificationChecking : Monitoring run-time modified files using timeStampMaster
allowSystemOperations : Allowing user-supplied system call operations

// * * * * * * * * * * * * * * * * * * * * * * * * * * * * * * * * * * * * * //
Create time

Create mesh for time = 0.455

Selecting dynamicFvMesh dynamicMotionSolverFvMesh
Selecting motion solver: displacementLaplacian
Selecting motion diffusion: quadratic
Selecting motion diffusion: quadratic
Selecting motion diffusion: inverseDistance

PIMPLE: no residual control data found. Calculations will employ 3 corrector loops

Reading field p

Reading field U

Reading/calculating face flux field phi

Selecting incompressible transport model Newtonian
Selecting turbulence model type RASModel
Selecting RAS turbulence model kOmegaSST
kOmegaSSTCoeffs
{
    alphaK1         0.85034;
    alphaK2         1;
    alphaOmega1     0.5;
    alphaOmega2     0.85616;
    gamma1          0.5532;
    gamma2          0.4403;
    beta1           0.075;
    beta2           0.0828;
    betaStar        0.09;
    a1              0.31;
    c1              10;
    Cmu             0.09;
    b1              1;
    F3              false;
}

Reading/calculating face velocity Uf

No finite volume options present

Courant Number mean: 0.275449 max: 0.609541

Starting time loop

Courant Number mean: 0.275449 max: 0.609541
Time = 0.456

GAMG:  Solving for cellDisplacementx, Initial residual = 0, Final residual = 0, No Iterations 0
GAMG:  Solving for cellDisplacementy, Initial residual = 0, Final residual = 0, No Iterations 0
GAMG:  Solving for cellDisplacementz, Initial residual = 0, Final residual = 0, No Iterations 0
PIMPLE: iteration 1
DILUPBiCG:  Solving for Ux, Initial residual = 0.0116301, Final residual = 4.26682e-05, No Iterations 1
DILUPBiCG:  Solving for Uy, Initial residual = 0.00190351, Final residual = 4.9055e-06, No Iterations 1
DILUPBiCG:  Solving for Uz, Initial residual = 0.0156585, Final residual = 3.95755e-05, No Iterations 1
GAMG:  Solving for p, Initial residual = 0.195688, Final residual = 0.00161262, No Iterations 6
GAMG:  Solving for p, Initial residual = 0.0275995, Final residual = 0.000244544, No Iterations 16
GAMG:  Solving for p, Initial residual = 0.0108526, Final residual = 9.35622e-05, No Iterations 12
time step continuity errors : sum local = 4.88994e-07, global = 1.46925e-07, cumulative = 1.46925e-07
GAMG:  Solving for p, Initial residual = 0.0776155, Final residual = 0.000501701, No Iterations 6
GAMG:  Solving for p, Initial residual = 0.0136465, Final residual = 0.000135124, No Iterations 12
GAMG:  Solving for p, Initial residual = 0.00557827, Final residual = 5.30252e-05, No Iterations 12
time step continuity errors : sum local = 2.75047e-07, global = 8.21022e-08, cumulative = 2.29027e-07
PIMPLE: iteration 2
DILUPBiCG:  Solving for Ux, Initial residual = 0.00399901, Final residual = 2.43986e-05, No Iterations 1
DILUPBiCG:  Solving for Uy, Initial residual = 0.000676008, Final residual = 3.13397e-06, No Iterations 1
DILUPBiCG:  Solving for Uz, Initial residual = 0.00435391, Final residual = 1.28635e-05, No Iterations 1
GAMG:  Solving for p, Initial residual = 0.0803568, Final residual = 0.000324064, No Iterations 4
GAMG:  Solving for p, Initial residual = 0.0142046, Final residual = 0.000124027, No Iterations 5
GAMG:  Solving for p, Initial residual = 0.00612452, Final residual = 5.09617e-05, No Iterations 6
time step continuity errors : sum local = 2.28744e-07, global = 5.80933e-08, cumulative = 2.87121e-07
GAMG:  Solving for p, Initial residual = 0.0396531, Final residual = 0.000340345, No Iterations 3
GAMG:  Solving for p, Initial residual = 0.00692929, Final residual = 5.98555e-05, No Iterations 4
GAMG:  Solving for p, Initial residual = 0.00313867, Final residual = 2.38696e-05, No Iterations 4
time step continuity errors : sum local = 1.07356e-07, global = 3.33486e-09, cumulative = 2.90455e-07
PIMPLE: iteration 3
DILUPBiCG:  Solving for Ux, Initial residual = 0.00125087, Final residual = 2.83143e-07, No Iterations 2
DILUPBiCG:  Solving for Uy, Initial residual = 0.000208926, Final residual = 4.31477e-06, No Iterations 1
DILUPBiCG:  Solving for Uz, Initial residual = 0.00285604, Final residual = 9.14068e-07, No Iterations 2
GAMG:  Solving for p, Initial residual = 0.0537898, Final residual = 0.000389134, No Iterations 4
GAMG:  Solving for p, Initial residual = 0.0127233, Final residual = 0.000126126, No Iterations 10
GAMG:  Solving for p, Initial residual = 0.00583163, Final residual = 5.38407e-05, No Iterations 10
time step continuity errors : sum local = 2.62479e-07, global = -6.81417e-08, cumulative = 2.22314e-07
GAMG:  Solving for p, Initial residual = 0.00412918, Final residual = 3.91941e-05, No Iterations 11
GAMG:  Solving for p, Initial residual = 0.00221741, Final residual = 1.99016e-05, No Iterations 4
GAMG:  Solving for p, Initial residual = 0.000815455, Final residual = 9.09499e-07, No Iterations 40
time step continuity errors : sum local = 4.41266e-09, global = 1.31274e-09, cumulative = 2.23626e-07
DILUPBiCG:  Solving for omega, Initial residual = 0.000839477, Final residual = 1.2835e-06, No Iterations 1
DILUPBiCG:  Solving for k, Initial residual = 0.0046357, Final residual = 1.48371e-06, No Iterations 2
ExecutionTime = 15.81 s  ClockTime = 17 s

Courant Number mean: 0.273519 max: 0.605572
Time = 0.457

GAMG:  Solving for cellDisplacementx, Initial residual = 0, Final residual = 0, No Iterations 0
GAMG:  Solving for cellDisplacementy, Initial residual = 0, Final residual = 0, No Iterations 0
GAMG:  Solving for cellDisplacementz, Initial residual = 0, Final residual = 0, No Iterations 0
PIMPLE: iteration 1
DILUPBiCG:  Solving for Ux, Initial residual = 0.0142802, Final residual = 5.34975e-05, No Iterations 1
DILUPBiCG:  Solving for Uy, Initial residual = 0.002295, Final residual = 5.58768e-06, No Iterations 1
DILUPBiCG:  Solving for Uz, Initial residual = 0.0144197, Final residual = 3.70348e-05, No Iterations 1
GAMG:  Solving for p, Initial residual = 0.147817, Final residual = 0.00137658, No Iterations 8
GAMG:  Solving for p, Initial residual = 0.0203588, Final residual = 0.000198839, No Iterations 16
GAMG:  Solving for p, Initial residual = 0.00783423, Final residual = 6.57738e-05, No Iterations 14
time step continuity errors : sum local = 3.90298e-07, global = 1.22259e-07, cumulative = 3.45886e-07
GAMG:  Solving for p, Initial residual = 0.0581483, Final residual = 0.000486122, No Iterations 6
GAMG:  Solving for p, Initial residual = 0.00988296, Final residual = 9.44926e-05, No Iterations 16
GAMG:  Solving for p, Initial residual = 0.00411603, Final residual = 3.50571e-05, No Iterations 12
time step continuity errors : sum local = 2.06603e-07, global = 6.10384e-08, cumulative = 4.06924e-07
PIMPLE: iteration 2
DILUPBiCG:  Solving for Ux, Initial residual = 0.00478243, Final residual = 2.31209e-05, No Iterations 1
DILUPBiCG:  Solving for Uy, Initial residual = 0.000803021, Final residual = 3.22458e-06, No Iterations 1
DILUPBiCG:  Solving for Uz, Initial residual = 0.00418772, Final residual = 1.22828e-05, No Iterations 1
GAMG:  Solving for p, Initial residual = 0.059622, Final residual = 0.000286449, No Iterations 4
GAMG:  Solving for p, Initial residual = 0.0101608, Final residual = 9.83845e-05, No Iterations 13
GAMG:  Solving for p, Initial residual = 0.00484958, Final residual = 4.73536e-05, No Iterations 4
time step continuity errors : sum local = 2.39046e-07, global = 7.98132e-08, cumulative = 4.86737e-07
GAMG:  Solving for p, Initial residual = 0.0296135, Final residual = 0.000283951, No Iterations 3
GAMG:  Solving for p, Initial residual = 0.00486092, Final residual = 4.32383e-05, No Iterations 6
GAMG:  Solving for p, Initial residual = 0.00231824, Final residual = 1.53179e-05, No Iterations 5
time step continuity errors : sum local = 7.76594e-08, global = -1.93488e-08, cumulative = 4.67389e-07
PIMPLE: iteration 3
DILUPBiCG:  Solving for Ux, Initial residual = 0.00143943, Final residual = 3.13212e-07, No Iterations 2
DILUPBiCG:  Solving for Uy, Initial residual = 0.000238957, Final residual = 4.95475e-06, No Iterations 1
DILUPBiCG:  Solving for Uz, Initial residual = 0.00335369, Final residual = 7.99914e-07, No Iterations 2
GAMG:  Solving for p, Initial residual = 0.0461999, Final residual = 0.00043657, No Iterations 4
GAMG:  Solving for p, Initial residual = 0.011048, Final residual = 9.23074e-05, No Iterations 14
GAMG:  Solving for p, Initial residual = 0.00512916, Final residual = 4.63974e-05, No Iterations 4
time step continuity errors : sum local = 2.56478e-07, global = -8.93051e-08, cumulative = 3.78083e-07
GAMG:  Solving for p, Initial residual = 0.00349165, Final residual = 2.50665e-05, No Iterations 6
GAMG:  Solving for p, Initial residual = 0.00197443, Final residual = 1.79847e-05, No Iterations 4
GAMG:  Solving for p, Initial residual = 0.000723973, Final residual = 9.34152e-07, No Iterations 31
time step continuity errors : sum local = 5.15293e-09, global = 1.5226e-09, cumulative = 3.79606e-07
DILUPBiCG:  Solving for omega, Initial residual = 0.000793559, Final residual = 1.24961e-06, No Iterations 1
DILUPBiCG:  Solving for k, Initial residual = 0.00468816, Final residual = 1.31056e-06, No Iterations 2
ExecutionTime = 29.67 s  ClockTime = 31 s

End

