/*---------------------------------------------------------------------------*\
| =========                 |                                                 |
| \\      /  F ield         | OpenFOAM: The Open Source CFD Toolbox           |
|  \\    /   O peration     | Version:  2.3.1                                 |
|   \\  /    A nd           | Web:      www.OpenFOAM.org                      |
|    \\/     M anipulation  |                                                 |
\*---------------------------------------------------------------------------*/
Build  : 2.3.1-262087cdf8db
Exec   : pimpleDyMFoam
Date   : Jun 05 2023
Time   : 19:32:09
Host   : "jcosson-VirtualBox"
PID    : 7391
Case   : /home/jcosson/workspace/henersj_shootingdata/calcs/moderate_deformed/primal/56_intervals_05-06-23/sweep48/interval50
nProcs : 1
sigFpe : Enabling floating point exception trapping (FOAM_SIGFPE).
fileModificationChecking : Monitoring run-time modified files using timeStampMaster
allowSystemOperations : Allowing user-supplied system call operations

// * * * * * * * * * * * * * * * * * * * * * * * * * * * * * * * * * * * * * //
Create time

Create mesh for time = 0.488

Selecting dynamicFvMesh dynamicMotionSolverFvMesh
Selecting motion solver: displacementLaplacian
Selecting motion diffusion: quadratic
Selecting motion diffusion: quadratic
Selecting motion diffusion: inverseDistance

PIMPLE: no residual control data found. Calculations will employ 3 corrector loops

Reading field p

Reading field U

Reading/calculating face flux field phi

Selecting incompressible transport model Newtonian
Selecting turbulence model type RASModel
Selecting RAS turbulence model kOmegaSST
bounding k, min: 0 max: 0.000598642 average: 0.000149661
kOmegaSSTCoeffs
{
    alphaK1         0.85034;
    alphaK2         1;
    alphaOmega1     0.5;
    alphaOmega2     0.85616;
    gamma1          0.5532;
    gamma2          0.4403;
    beta1           0.075;
    beta2           0.0828;
    betaStar        0.09;
    a1              0.31;
    c1              10;
    Cmu             0.09;
    b1              1;
    F3              false;
}

Reading/calculating face velocity Uf

No finite volume options present

Courant Number mean: 0.122813 max: 0.265779

Starting time loop

Courant Number mean: 0.122813 max: 0.265779
Time = 0.489

GAMG:  Solving for cellDisplacementx, Initial residual = 0, Final residual = 0, No Iterations 0
GAMG:  Solving for cellDisplacementy, Initial residual = 0, Final residual = 0, No Iterations 0
GAMG:  Solving for cellDisplacementz, Initial residual = 0, Final residual = 0, No Iterations 0
PIMPLE: iteration 1
DILUPBiCG:  Solving for Ux, Initial residual = 0.057485, Final residual = 0.000226524, No Iterations 1
DILUPBiCG:  Solving for Uy, Initial residual = 0.0113581, Final residual = 2.38294e-05, No Iterations 1
DILUPBiCG:  Solving for Uz, Initial residual = 0.013172, Final residual = 1.25693e-05, No Iterations 1
GAMG:  Solving for p, Initial residual = 0.115476, Final residual = 0.000773852, No Iterations 4
GAMG:  Solving for p, Initial residual = 0.015421, Final residual = 0.000149887, No Iterations 16
GAMG:  Solving for p, Initial residual = 0.00726844, Final residual = 6.64903e-05, No Iterations 4
time step continuity errors : sum local = 7.7689e-07, global = 2.74694e-07, cumulative = 2.74694e-07
GAMG:  Solving for p, Initial residual = 0.051885, Final residual = 0.000335386, No Iterations 4
GAMG:  Solving for p, Initial residual = 0.00765134, Final residual = 7.58715e-05, No Iterations 14
GAMG:  Solving for p, Initial residual = 0.00365045, Final residual = 3.5703e-05, No Iterations 4
time step continuity errors : sum local = 4.19778e-07, global = 1.49831e-07, cumulative = 4.24526e-07
PIMPLE: iteration 2
DILUPBiCG:  Solving for Ux, Initial residual = 0.0149383, Final residual = 9.31082e-05, No Iterations 1
DILUPBiCG:  Solving for Uy, Initial residual = 0.00304531, Final residual = 6.34118e-06, No Iterations 1
DILUPBiCG:  Solving for Uz, Initial residual = 0.00283031, Final residual = 9.14088e-06, No Iterations 1
GAMG:  Solving for p, Initial residual = 0.0508504, Final residual = 0.000480194, No Iterations 4
GAMG:  Solving for p, Initial residual = 0.0104541, Final residual = 0.000100301, No Iterations 14
GAMG:  Solving for p, Initial residual = 0.00476415, Final residual = 4.13998e-05, No Iterations 4
time step continuity errors : sum local = 4.2346e-07, global = -1.62302e-07, cumulative = 2.62223e-07
GAMG:  Solving for p, Initial residual = 0.0268311, Final residual = 0.00022949, No Iterations 4
GAMG:  Solving for p, Initial residual = 0.0057437, Final residual = 5.16136e-05, No Iterations 12
GAMG:  Solving for p, Initial residual = 0.00225342, Final residual = 2.08718e-05, No Iterations 4
time step continuity errors : sum local = 2.13878e-07, global = -8.24696e-08, cumulative = 1.79754e-07
PIMPLE: iteration 3
DILUPBiCG:  Solving for Ux, Initial residual = 0.0032054, Final residual = 2.97132e-06, No Iterations 2
DILUPBiCG:  Solving for Uy, Initial residual = 0.000687563, Final residual = 4.94697e-06, No Iterations 1
DILUPBiCG:  Solving for Uz, Initial residual = 0.00509167, Final residual = 2.40826e-06, No Iterations 2
GAMG:  Solving for p, Initial residual = 0.0448844, Final residual = 0.000339722, No Iterations 5
GAMG:  Solving for p, Initial residual = 0.010193, Final residual = 9.58305e-05, No Iterations 14
GAMG:  Solving for p, Initial residual = 0.00519935, Final residual = 5.00329e-05, No Iterations 10
time step continuity errors : sum local = 5.73507e-07, global = -1.51481e-07, cumulative = 2.82731e-08
GAMG:  Solving for p, Initial residual = 0.00249846, Final residual = 1.941e-05, No Iterations 8
GAMG:  Solving for p, Initial residual = 0.00129662, Final residual = 9.14711e-06, No Iterations 5
GAMG:  Solving for p, Initial residual = 0.000514027, Final residual = 8.8947e-07, No Iterations 28
time step continuity errors : sum local = 1.00837e-08, global = 3.03793e-09, cumulative = 3.1311e-08
DILUPBiCG:  Solving for omega, Initial residual = 0.00112658, Final residual = 7.0676e-07, No Iterations 1
DILUPBiCG:  Solving for k, Initial residual = 0.00340505, Final residual = 6.92415e-07, No Iterations 2
bounding k, min: 0 max: 0.000586089 average: 0.000148833
ExecutionTime = 9.59 s  ClockTime = 9 s

End

