/*---------------------------------------------------------------------------*\
| =========                 |                                                 |
| \\      /  F ield         | OpenFOAM: The Open Source CFD Toolbox           |
|  \\    /   O peration     | Version:  2.3.1                                 |
|   \\  /    A nd           | Web:      www.OpenFOAM.org                      |
|    \\/     M anipulation  |                                                 |
\*---------------------------------------------------------------------------*/
Build  : 2.3.1-262087cdf8db
Exec   : pimpleDyMFoam
Date   : Jun 05 2023
Time   : 18:28:32
Host   : "jcosson-VirtualBox"
PID    : 17672
Case   : /home/jcosson/workspace/henersj_shootingdata/calcs/moderate_deformed/primal/56_intervals_05-06-23/sweep14/interval21
nProcs : 1
sigFpe : Enabling floating point exception trapping (FOAM_SIGFPE).
fileModificationChecking : Monitoring run-time modified files using timeStampMaster
allowSystemOperations : Allowing user-supplied system call operations

// * * * * * * * * * * * * * * * * * * * * * * * * * * * * * * * * * * * * * //
Create time

Create mesh for time = 0.436

Selecting dynamicFvMesh dynamicMotionSolverFvMesh
Selecting motion solver: displacementLaplacian
Selecting motion diffusion: quadratic
Selecting motion diffusion: quadratic
Selecting motion diffusion: inverseDistance

PIMPLE: no residual control data found. Calculations will employ 3 corrector loops

Reading field p

Reading field U

Reading/calculating face flux field phi

Selecting incompressible transport model Newtonian
Selecting turbulence model type RASModel
Selecting RAS turbulence model kOmegaSST
kOmegaSSTCoeffs
{
    alphaK1         0.85034;
    alphaK2         1;
    alphaOmega1     0.5;
    alphaOmega2     0.85616;
    gamma1          0.5532;
    gamma2          0.4403;
    beta1           0.075;
    beta2           0.0828;
    betaStar        0.09;
    a1              0.31;
    c1              10;
    Cmu             0.09;
    b1              1;
    F3              false;
}

Reading/calculating face velocity Uf

No finite volume options present

Courant Number mean: 0.246487 max: 0.538566

Starting time loop

Courant Number mean: 0.246487 max: 0.538566
Time = 0.437

GAMG:  Solving for cellDisplacementx, Initial residual = 0, Final residual = 0, No Iterations 0
GAMG:  Solving for cellDisplacementy, Initial residual = 0, Final residual = 0, No Iterations 0
GAMG:  Solving for cellDisplacementz, Initial residual = 0, Final residual = 0, No Iterations 0
PIMPLE: iteration 1
DILUPBiCG:  Solving for Ux, Initial residual = 0.0373066, Final residual = 0.000121513, No Iterations 1
DILUPBiCG:  Solving for Uy, Initial residual = 0.00586578, Final residual = 1.45229e-05, No Iterations 1
DILUPBiCG:  Solving for Uz, Initial residual = 0.0131392, Final residual = 1.95869e-05, No Iterations 1
GAMG:  Solving for p, Initial residual = 0.117748, Final residual = 0.00100682, No Iterations 4
GAMG:  Solving for p, Initial residual = 0.0156661, Final residual = 0.00014507, No Iterations 16
GAMG:  Solving for p, Initial residual = 0.00686454, Final residual = 6.50596e-05, No Iterations 10
time step continuity errors : sum local = 7.94722e-07, global = -2.09572e-07, cumulative = -2.09572e-07
GAMG:  Solving for p, Initial residual = 0.051803, Final residual = 0.000382374, No Iterations 4
GAMG:  Solving for p, Initial residual = 0.00768699, Final residual = 7.11498e-05, No Iterations 14
GAMG:  Solving for p, Initial residual = 0.00343696, Final residual = 3.40358e-05, No Iterations 10
time step continuity errors : sum local = 4.15956e-07, global = -1.10831e-07, cumulative = -3.20404e-07
PIMPLE: iteration 2
DILUPBiCG:  Solving for Ux, Initial residual = 0.0105202, Final residual = 4.08496e-05, No Iterations 1
DILUPBiCG:  Solving for Uy, Initial residual = 0.00169136, Final residual = 6.50943e-06, No Iterations 1
DILUPBiCG:  Solving for Uz, Initial residual = 0.00275452, Final residual = 8.25216e-06, No Iterations 1
GAMG:  Solving for p, Initial residual = 0.0518273, Final residual = 0.000500785, No Iterations 5
GAMG:  Solving for p, Initial residual = 0.0109547, Final residual = 9.87169e-05, No Iterations 13
GAMG:  Solving for p, Initial residual = 0.00428724, Final residual = 3.69821e-05, No Iterations 12
time step continuity errors : sum local = 3.8336e-07, global = 1.09833e-07, cumulative = -2.1057e-07
GAMG:  Solving for p, Initial residual = 0.0271061, Final residual = 0.000244013, No Iterations 4
GAMG:  Solving for p, Initial residual = 0.00527039, Final residual = 4.40426e-05, No Iterations 14
GAMG:  Solving for p, Initial residual = 0.00203443, Final residual = 2.02423e-05, No Iterations 10
time step continuity errors : sum local = 2.11201e-07, global = 5.3437e-08, cumulative = -1.57133e-07
PIMPLE: iteration 3
DILUPBiCG:  Solving for Ux, Initial residual = 0.00240378, Final residual = 1.01807e-06, No Iterations 2
DILUPBiCG:  Solving for Uy, Initial residual = 0.000392051, Final residual = 9.74599e-06, No Iterations 1
DILUPBiCG:  Solving for Uz, Initial residual = 0.00591275, Final residual = 8.24887e-08, No Iterations 3
GAMG:  Solving for p, Initial residual = 0.0442125, Final residual = 0.000374021, No Iterations 5
GAMG:  Solving for p, Initial residual = 0.0115881, Final residual = 0.000106274, No Iterations 10
GAMG:  Solving for p, Initial residual = 0.00501395, Final residual = 4.25615e-05, No Iterations 12
time step continuity errors : sum local = 4.93404e-07, global = 1.44881e-07, cumulative = -1.22517e-08
GAMG:  Solving for p, Initial residual = 0.00297871, Final residual = 2.62785e-05, No Iterations 18
GAMG:  Solving for p, Initial residual = 0.00177004, Final residual = 1.35677e-05, No Iterations 4
GAMG:  Solving for p, Initial residual = 0.000622876, Final residual = 8.80069e-07, No Iterations 38
time step continuity errors : sum local = 1.01702e-08, global = -2.9984e-09, cumulative = -1.52501e-08
DILUPBiCG:  Solving for omega, Initial residual = 0.000999153, Final residual = 1.14909e-06, No Iterations 1
DILUPBiCG:  Solving for k, Initial residual = 0.0061702, Final residual = 1.33723e-06, No Iterations 2
ExecutionTime = 17.54 s  ClockTime = 17 s

Courant Number mean: 0.250829 max: 0.54881
Time = 0.438

GAMG:  Solving for cellDisplacementx, Initial residual = 0, Final residual = 0, No Iterations 0
GAMG:  Solving for cellDisplacementy, Initial residual = 0, Final residual = 0, No Iterations 0
GAMG:  Solving for cellDisplacementz, Initial residual = 0, Final residual = 0, No Iterations 0
PIMPLE: iteration 1
DILUPBiCG:  Solving for Ux, Initial residual = 0.0348589, Final residual = 0.000114019, No Iterations 1
DILUPBiCG:  Solving for Uy, Initial residual = 0.00545106, Final residual = 1.37721e-05, No Iterations 1
DILUPBiCG:  Solving for Uz, Initial residual = 0.0111953, Final residual = 1.83008e-05, No Iterations 1
GAMG:  Solving for p, Initial residual = 0.10605, Final residual = 0.00103047, No Iterations 4
GAMG:  Solving for p, Initial residual = 0.0137787, Final residual = 0.000130188, No Iterations 18
GAMG:  Solving for p, Initial residual = 0.00624209, Final residual = 5.95526e-05, No Iterations 10
time step continuity errors : sum local = 6.95128e-07, global = -1.81625e-07, cumulative = -1.96875e-07
GAMG:  Solving for p, Initial residual = 0.0468669, Final residual = 0.000386351, No Iterations 4
GAMG:  Solving for p, Initial residual = 0.00677469, Final residual = 6.40703e-05, No Iterations 16
GAMG:  Solving for p, Initial residual = 0.00312939, Final residual = 2.59031e-05, No Iterations 12
time step continuity errors : sum local = 3.02429e-07, global = -9.05165e-08, cumulative = -2.87391e-07
PIMPLE: iteration 2
DILUPBiCG:  Solving for Ux, Initial residual = 0.00982783, Final residual = 3.80099e-05, No Iterations 1
DILUPBiCG:  Solving for Uy, Initial residual = 0.00157819, Final residual = 6.41318e-06, No Iterations 1
DILUPBiCG:  Solving for Uz, Initial residual = 0.00283315, Final residual = 8.20939e-06, No Iterations 1
GAMG:  Solving for p, Initial residual = 0.0461754, Final residual = 0.000324858, No Iterations 6
GAMG:  Solving for p, Initial residual = 0.0100925, Final residual = 9.36287e-05, No Iterations 14
GAMG:  Solving for p, Initial residual = 0.00372629, Final residual = 3.56389e-05, No Iterations 12
time step continuity errors : sum local = 3.53044e-07, global = 1.0097e-07, cumulative = -1.86422e-07
GAMG:  Solving for p, Initial residual = 0.0240745, Final residual = 0.000220715, No Iterations 5
GAMG:  Solving for p, Initial residual = 0.00482551, Final residual = 4.65631e-05, No Iterations 11
GAMG:  Solving for p, Initial residual = 0.00172241, Final residual = 1.55766e-05, No Iterations 14
time step continuity errors : sum local = 1.55459e-07, global = 4.78586e-08, cumulative = -1.38563e-07
PIMPLE: iteration 3
DILUPBiCG:  Solving for Ux, Initial residual = 0.00222677, Final residual = 9.30201e-07, No Iterations 2
DILUPBiCG:  Solving for Uy, Initial residual = 0.000363855, Final residual = 9.17252e-06, No Iterations 1
DILUPBiCG:  Solving for Uz, Initial residual = 0.00625933, Final residual = 5.91191e-06, No Iterations 2
GAMG:  Solving for p, Initial residual = 0.0439578, Final residual = 0.000371519, No Iterations 5
GAMG:  Solving for p, Initial residual = 0.011637, Final residual = 0.000102886, No Iterations 10
GAMG:  Solving for p, Initial residual = 0.00501599, Final residual = 4.92122e-05, No Iterations 10
time step continuity errors : sum local = 5.44706e-07, global = 1.42394e-07, cumulative = 3.83076e-09
GAMG:  Solving for p, Initial residual = 0.0029638, Final residual = 2.60417e-05, No Iterations 18
GAMG:  Solving for p, Initial residual = 0.00179839, Final residual = 1.28817e-05, No Iterations 4
GAMG:  Solving for p, Initial residual = 0.000627709, Final residual = 9.36528e-07, No Iterations 36
time step continuity errors : sum local = 1.03374e-08, global = -3.03441e-09, cumulative = 7.96344e-10
DILUPBiCG:  Solving for omega, Initial residual = 0.00103487, Final residual = 1.20686e-06, No Iterations 1
DILUPBiCG:  Solving for k, Initial residual = 0.00626819, Final residual = 1.35495e-06, No Iterations 2
ExecutionTime = 33.14 s  ClockTime = 33 s

End

