/*---------------------------------------------------------------------------*\
| =========                 |                                                 |
| \\      /  F ield         | OpenFOAM: The Open Source CFD Toolbox           |
|  \\    /   O peration     | Version:  2.3.1                                 |
|   \\  /    A nd           | Web:      www.OpenFOAM.org                      |
|    \\/     M anipulation  |                                                 |
\*---------------------------------------------------------------------------*/
Build  : 2.3.1-262087cdf8db
Exec   : linearisedPimpleDyMFoam
Date   : Jun 06 2023
Time   : 01:04:28
Host   : "jcosson-VirtualBox"
PID    : 22274
Case   : /home/jcosson/workspace/henersj_shootingdata/calcs/moderate_deformed/primal/100_intervals_05-06-23/sweep28/interval34
nProcs : 1
sigFpe : Enabling floating point exception trapping (FOAM_SIGFPE).
fileModificationChecking : Monitoring run-time modified files using timeStampMaster
allowSystemOperations : Allowing user-supplied system call operations

// * * * * * * * * * * * * * * * * * * * * * * * * * * * * * * * * * * * * * //
Create time

Create mesh for time = 0.433

Selecting dynamicFvMesh dynamicMotionSolverFvMesh
Selecting motion solver: displacementLaplacian
Selecting motion diffusion: quadratic
Selecting motion diffusion: quadratic
Selecting motion diffusion: inverseDistance
Reading field linP

Reading field linU

starte createPhia.H

Reading/calculating face flux field linPhi

Adjungierte Interpolation durchgefuehrt

createPhia.H verlassen

setRefCell ausgefuehrt

No finite volume options present


PIMPLE: no residual control data found. Calculations will employ 3 corrector loops


Starting time loop

Time = 0.434

Reading field p

Reading field U

Read primal fluxes 

Reading primal face flux fields phi/meshPhi

Created primal fluxes 

Selecting incompressible transport model Newtonian
singlePhaseTransportModel gewaehlt 

Selecting turbulence model type RASModel
Selecting RAS turbulence model kOmegaSST
kOmegaSSTCoeffs
{
    alphaK1         0.85034;
    alphaK2         1;
    alphaOmega1     0.5;
    alphaOmega2     0.85616;
    gamma1          0.5532;
    gamma2          0.4403;
    beta1           0.075;
    beta2           0.0828;
    betaStar        0.09;
    a1              0.31;
    c1              10;
    Cmu             0.09;
    b1              1;
    F3              false;
}

autoPtr ausgefuehrt

Reading/calculating face velocity Uf

Init adjoint face velocity linUf

Courant Number mean: 0.237208 max: 0.518085
Adjoint Courant Number mean: 0.000179434 max: 0.00438033
GAMG:  Solving for cellDisplacementx, Initial residual = 0, Final residual = 0, No Iterations 0
GAMG:  Solving for cellDisplacementy, Initial residual = 0, Final residual = 0, No Iterations 0
GAMG:  Solving for cellDisplacementz, Initial residual = 0, Final residual = 0, No Iterations 0
PIMPLE: iteration 1
DILUPBiCG:  Solving for linUx, Initial residual = 0.0432811, Final residual = 0.000105985, No Iterations 1
DILUPBiCG:  Solving for linUy, Initial residual = 0.080838, Final residual = 0.00015616, No Iterations 1
DILUPBiCG:  Solving for linUz, Initial residual = 0.10803, Final residual = 0.000244065, No Iterations 1
GAMG:  Solving for linP, Initial residual = 1, Final residual = 0.00977336, No Iterations 2
GAMG:  Solving for linP, Initial residual = 0.0124796, Final residual = 7.91493e-05, No Iterations 4
GAMG:  Solving for linP, Initial residual = 0.00432082, Final residual = 2.77207e-05, No Iterations 4
Adjoint continuity errors : sum local = 7.75001e-09, global = -7.08821e-10, cumulative = -7.08821e-10
GAMG:  Solving for linP, Initial residual = 0.0382954, Final residual = 0.000201203, No Iterations 3
GAMG:  Solving for linP, Initial residual = 0.003801, Final residual = 1.7544e-05, No Iterations 4
GAMG:  Solving for linP, Initial residual = 0.00112989, Final residual = 1.08237e-05, No Iterations 3
Adjoint continuity errors : sum local = 2.87005e-09, global = -8.55024e-11, cumulative = -7.94323e-10
PIMPLE: iteration 2
DILUPBiCG:  Solving for linUx, Initial residual = 0.00547528, Final residual = 2.07379e-05, No Iterations 1
DILUPBiCG:  Solving for linUy, Initial residual = 0.0118318, Final residual = 2.8791e-05, No Iterations 1
DILUPBiCG:  Solving for linUz, Initial residual = 0.0132746, Final residual = 3.65075e-05, No Iterations 1
GAMG:  Solving for linP, Initial residual = 0.0516756, Final residual = 0.000142014, No Iterations 3
GAMG:  Solving for linP, Initial residual = 0.00242598, Final residual = 2.20272e-05, No Iterations 3
GAMG:  Solving for linP, Initial residual = 0.000659716, Final residual = 3.68763e-06, No Iterations 4
Adjoint continuity errors : sum local = 1.0018e-09, global = -1.45471e-10, cumulative = -9.39794e-10
GAMG:  Solving for linP, Initial residual = 0.00316898, Final residual = 1.81475e-05, No Iterations 3
GAMG:  Solving for linP, Initial residual = 0.000436356, Final residual = 3.9218e-06, No Iterations 3
GAMG:  Solving for linP, Initial residual = 0.000136393, Final residual = 7.61421e-07, No Iterations 4
Adjoint continuity errors : sum local = 2.06816e-10, global = 4.95567e-11, cumulative = -8.90238e-10
PIMPLE: iteration 3
DILUPBiCG:  Solving for linUx, Initial residual = 0.000915929, Final residual = 5.43206e-06, No Iterations 1
DILUPBiCG:  Solving for linUy, Initial residual = 0.00224457, Final residual = 6.95008e-06, No Iterations 1
DILUPBiCG:  Solving for linUz, Initial residual = 0.00207421, Final residual = 4.92789e-06, No Iterations 1
GAMG:  Solving for linP, Initial residual = 0.0430683, Final residual = 0.00032913, No Iterations 2
GAMG:  Solving for linP, Initial residual = 0.00142117, Final residual = 1.26748e-05, No Iterations 3
GAMG:  Solving for linP, Initial residual = 0.000460687, Final residual = 4.14188e-06, No Iterations 3
Adjoint continuity errors : sum local = 1.15641e-09, global = -7.91474e-12, cumulative = -8.98152e-10
GAMG:  Solving for linP, Initial residual = 0.00233625, Final residual = 7.23123e-06, No Iterations 3
GAMG:  Solving for linP, Initial residual = 0.000188793, Final residual = 1.48226e-06, No Iterations 3
GAMG:  Solving for linP, Initial residual = 6.53885e-05, Final residual = 3.47731e-07, No Iterations 4
Adjoint continuity errors : sum local = 9.73831e-11, global = 1.48536e-11, cumulative = -8.83299e-10
ExecutionTime = 7.75 s  ClockTime = 8 s

End

