/*---------------------------------------------------------------------------*\
| =========                 |                                                 |
| \\      /  F ield         | OpenFOAM: The Open Source CFD Toolbox           |
|  \\    /   O peration     | Version:  2.3.1                                 |
|   \\  /    A nd           | Web:      www.OpenFOAM.org                      |
|    \\/     M anipulation  |                                                 |
\*---------------------------------------------------------------------------*/
Build  : 2.3.1-262087cdf8db
Exec   : pimpleDyMFoam
Date   : Jun 06 2023
Time   : 01:02:22
Host   : "jcosson-VirtualBox"
PID    : 20822
Case   : /home/jcosson/workspace/henersj_shootingdata/calcs/moderate_deformed/primal/100_intervals_05-06-23/sweep28/interval34
nProcs : 1
sigFpe : Enabling floating point exception trapping (FOAM_SIGFPE).
fileModificationChecking : Monitoring run-time modified files using timeStampMaster
allowSystemOperations : Allowing user-supplied system call operations

// * * * * * * * * * * * * * * * * * * * * * * * * * * * * * * * * * * * * * //
Create time

Create mesh for time = 0.433

Selecting dynamicFvMesh dynamicMotionSolverFvMesh
Selecting motion solver: displacementLaplacian
Selecting motion diffusion: quadratic
Selecting motion diffusion: quadratic
Selecting motion diffusion: inverseDistance

PIMPLE: no residual control data found. Calculations will employ 3 corrector loops

Reading field p

Reading field U

Reading/calculating face flux field phi

Selecting incompressible transport model Newtonian
Selecting turbulence model type RASModel
Selecting RAS turbulence model kOmegaSST
kOmegaSSTCoeffs
{
    alphaK1         0.85034;
    alphaK2         1;
    alphaOmega1     0.5;
    alphaOmega2     0.85616;
    gamma1          0.5532;
    gamma2          0.4403;
    beta1           0.075;
    beta2           0.0828;
    betaStar        0.09;
    a1              0.31;
    c1              10;
    Cmu             0.09;
    b1              1;
    F3              false;
}

Reading/calculating face velocity Uf

No finite volume options present

Courant Number mean: 0.232227 max: 0.506489

Starting time loop

Courant Number mean: 0.232227 max: 0.506489
Time = 0.434

GAMG:  Solving for cellDisplacementx, Initial residual = 0, Final residual = 0, No Iterations 0
GAMG:  Solving for cellDisplacementy, Initial residual = 0, Final residual = 0, No Iterations 0
GAMG:  Solving for cellDisplacementz, Initial residual = 0, Final residual = 0, No Iterations 0
PIMPLE: iteration 1
DILUPBiCG:  Solving for Ux, Initial residual = 0.0443666, Final residual = 0.000143365, No Iterations 1
DILUPBiCG:  Solving for Uy, Initial residual = 0.00704222, Final residual = 1.64197e-05, No Iterations 1
DILUPBiCG:  Solving for Uz, Initial residual = 0.0142355, Final residual = 1.98238e-05, No Iterations 1
GAMG:  Solving for p, Initial residual = 0.118606, Final residual = 0.00112284, No Iterations 4
GAMG:  Solving for p, Initial residual = 0.0155893, Final residual = 0.000155288, No Iterations 16
GAMG:  Solving for p, Initial residual = 0.0068565, Final residual = 5.81941e-05, No Iterations 12
time step continuity errors : sum local = 7.9789e-07, global = -2.38637e-07, cumulative = -2.38637e-07
GAMG:  Solving for p, Initial residual = 0.0518464, Final residual = 0.000422669, No Iterations 4
GAMG:  Solving for p, Initial residual = 0.00764335, Final residual = 7.59614e-05, No Iterations 14
GAMG:  Solving for p, Initial residual = 0.00343139, Final residual = 3.02259e-05, No Iterations 12
time step continuity errors : sum local = 4.14644e-07, global = -1.24335e-07, cumulative = -3.62972e-07
PIMPLE: iteration 2
DILUPBiCG:  Solving for Ux, Initial residual = 0.0125099, Final residual = 4.98397e-05, No Iterations 1
DILUPBiCG:  Solving for Uy, Initial residual = 0.0020235, Final residual = 6.80589e-06, No Iterations 1
DILUPBiCG:  Solving for Uz, Initial residual = 0.00273566, Final residual = 8.47484e-06, No Iterations 1
GAMG:  Solving for p, Initial residual = 0.0519701, Final residual = 0.000500138, No Iterations 5
GAMG:  Solving for p, Initial residual = 0.0102427, Final residual = 9.47456e-05, No Iterations 13
GAMG:  Solving for p, Initial residual = 0.00416111, Final residual = 3.55023e-05, No Iterations 12
time step continuity errors : sum local = 4.14039e-07, global = 1.18067e-07, cumulative = -2.44904e-07
GAMG:  Solving for p, Initial residual = 0.0269883, Final residual = 0.000233805, No Iterations 4
GAMG:  Solving for p, Initial residual = 0.00494675, Final residual = 4.25999e-05, No Iterations 14
GAMG:  Solving for p, Initial residual = 0.00199217, Final residual = 1.90751e-05, No Iterations 10
time step continuity errors : sum local = 2.23822e-07, global = 5.64692e-08, cumulative = -1.88435e-07
PIMPLE: iteration 3
DILUPBiCG:  Solving for Ux, Initial residual = 0.0029096, Final residual = 1.23634e-06, No Iterations 2
DILUPBiCG:  Solving for Uy, Initial residual = 0.000481988, Final residual = 9.63465e-06, No Iterations 1
DILUPBiCG:  Solving for Uz, Initial residual = 0.00657265, Final residual = 1.25377e-07, No Iterations 3
GAMG:  Solving for p, Initial residual = 0.042868, Final residual = 0.000367402, No Iterations 5
GAMG:  Solving for p, Initial residual = 0.0109809, Final residual = 9.13588e-05, No Iterations 10
GAMG:  Solving for p, Initial residual = 0.00482614, Final residual = 4.23152e-05, No Iterations 10
time step continuity errors : sum local = 5.52158e-07, global = 1.42576e-07, cumulative = -4.58596e-08
GAMG:  Solving for p, Initial residual = 0.00278335, Final residual = 2.53989e-05, No Iterations 18
GAMG:  Solving for p, Initial residual = 0.00164338, Final residual = 1.30368e-05, No Iterations 4
GAMG:  Solving for p, Initial residual = 0.000599431, Final residual = 8.58018e-07, No Iterations 38
time step continuity errors : sum local = 1.11587e-08, global = -3.28773e-09, cumulative = -4.91474e-08
DILUPBiCG:  Solving for omega, Initial residual = 0.000869334, Final residual = 9.63522e-07, No Iterations 1
DILUPBiCG:  Solving for k, Initial residual = 0.00580589, Final residual = 1.23486e-06, No Iterations 2
ExecutionTime = 18.21 s  ClockTime = 19 s

End

