/*---------------------------------------------------------------------------*\
| =========                 |                                                 |
| \\      /  F ield         | OpenFOAM: The Open Source CFD Toolbox           |
|  \\    /   O peration     | Version:  2.3.1                                 |
|   \\  /    A nd           | Web:      www.OpenFOAM.org                      |
|    \\/     M anipulation  |                                                 |
\*---------------------------------------------------------------------------*/
Build  : 2.3.1-262087cdf8db
Exec   : pimpleDyMFoam
Date   : Jun 05 2023
Time   : 18:23:06
Host   : "jcosson-VirtualBox"
PID    : 15709
Case   : /home/jcosson/workspace/henersj_shootingdata/calcs/moderate_deformed/primal/56_intervals_05-06-23/sweep12/interval28
nProcs : 1
sigFpe : Enabling floating point exception trapping (FOAM_SIGFPE).
fileModificationChecking : Monitoring run-time modified files using timeStampMaster
allowSystemOperations : Allowing user-supplied system call operations

// * * * * * * * * * * * * * * * * * * * * * * * * * * * * * * * * * * * * * //
Create time

Create mesh for time = 0.448

Selecting dynamicFvMesh dynamicMotionSolverFvMesh
Selecting motion solver: displacementLaplacian
Selecting motion diffusion: quadratic
Selecting motion diffusion: quadratic
Selecting motion diffusion: inverseDistance

PIMPLE: no residual control data found. Calculations will employ 3 corrector loops

Reading field p

Reading field U

Reading/calculating face flux field phi

Selecting incompressible transport model Newtonian
Selecting turbulence model type RASModel
Selecting RAS turbulence model kOmegaSST
kOmegaSSTCoeffs
{
    alphaK1         0.85034;
    alphaK2         1;
    alphaOmega1     0.5;
    alphaOmega2     0.85616;
    gamma1          0.5532;
    gamma2          0.4403;
    beta1           0.075;
    beta2           0.0828;
    betaStar        0.09;
    a1              0.31;
    c1              10;
    Cmu             0.09;
    b1              1;
    F3              false;
}

Reading/calculating face velocity Uf

No finite volume options present

Courant Number mean: 0.278993 max: 0.616527

Starting time loop

Courant Number mean: 0.278993 max: 0.616527
Time = 0.449

GAMG:  Solving for cellDisplacementx, Initial residual = 0, Final residual = 0, No Iterations 0
GAMG:  Solving for cellDisplacementy, Initial residual = 0, Final residual = 0, No Iterations 0
GAMG:  Solving for cellDisplacementz, Initial residual = 0, Final residual = 0, No Iterations 0
PIMPLE: iteration 1
DILUPBiCG:  Solving for Ux, Initial residual = 0.00674185, Final residual = 3.65887e-05, No Iterations 1
DILUPBiCG:  Solving for Uy, Initial residual = 0.00109874, Final residual = 7.17274e-06, No Iterations 1
DILUPBiCG:  Solving for Uz, Initial residual = 0.012717, Final residual = 3.16562e-05, No Iterations 1
GAMG:  Solving for p, Initial residual = 0.145564, Final residual = 0.0011433, No Iterations 3
GAMG:  Solving for p, Initial residual = 0.0279391, Final residual = 0.000247326, No Iterations 5
GAMG:  Solving for p, Initial residual = 0.0108755, Final residual = 9.95259e-05, No Iterations 10
time step continuity errors : sum local = 3.10701e-07, global = 8.12056e-08, cumulative = 8.12056e-08
GAMG:  Solving for p, Initial residual = 0.0747662, Final residual = 0.00052415, No Iterations 3
GAMG:  Solving for p, Initial residual = 0.0135438, Final residual = 0.000109426, No Iterations 5
GAMG:  Solving for p, Initial residual = 0.00533197, Final residual = 5.32226e-05, No Iterations 8
time step continuity errors : sum local = 1.663e-07, global = 3.84347e-08, cumulative = 1.1964e-07
PIMPLE: iteration 2
DILUPBiCG:  Solving for Ux, Initial residual = 0.00151769, Final residual = 1.44277e-05, No Iterations 1
DILUPBiCG:  Solving for Uy, Initial residual = 0.000254958, Final residual = 1.30055e-05, No Iterations 1
DILUPBiCG:  Solving for Uz, Initial residual = 0.00402824, Final residual = 5.70572e-05, No Iterations 1
GAMG:  Solving for p, Initial residual = 0.0761678, Final residual = 0.000473903, No Iterations 5
GAMG:  Solving for p, Initial residual = 0.0266412, Final residual = 0.000225653, No Iterations 7
GAMG:  Solving for p, Initial residual = 0.00701318, Final residual = 6.07235e-05, No Iterations 16
time step continuity errors : sum local = 1.67425e-07, global = 4.80265e-08, cumulative = 1.67667e-07
GAMG:  Solving for p, Initial residual = 0.0411136, Final residual = 0.000343249, No Iterations 4
GAMG:  Solving for p, Initial residual = 0.0123155, Final residual = 0.000111615, No Iterations 8
GAMG:  Solving for p, Initial residual = 0.00352658, Final residual = 3.37926e-05, No Iterations 14
time step continuity errors : sum local = 9.3716e-08, global = 2.74448e-08, cumulative = 1.95112e-07
PIMPLE: iteration 3
DILUPBiCG:  Solving for Ux, Initial residual = 0.000134893, Final residual = 1.87983e-06, No Iterations 1
DILUPBiCG:  Solving for Uy, Initial residual = 3.64007e-05, Final residual = 3.1582e-07, No Iterations 1
DILUPBiCG:  Solving for Uz, Initial residual = 0.00217058, Final residual = 2.56786e-07, No Iterations 2
GAMG:  Solving for p, Initial residual = 0.0784591, Final residual = 0.00074066, No Iterations 3
GAMG:  Solving for p, Initial residual = 0.0182496, Final residual = 0.000176228, No Iterations 14
GAMG:  Solving for p, Initial residual = 0.0120986, Final residual = 0.000117773, No Iterations 4
time step continuity errors : sum local = 3.48608e-07, global = 1.06694e-07, cumulative = 3.01806e-07
GAMG:  Solving for p, Initial residual = 0.00652477, Final residual = 6.32706e-05, No Iterations 5
GAMG:  Solving for p, Initial residual = 0.00343582, Final residual = 2.58987e-05, No Iterations 4
GAMG:  Solving for p, Initial residual = 0.00118592, Final residual = 9.6983e-07, No Iterations 26
time step continuity errors : sum local = 2.83773e-09, global = -9.13968e-10, cumulative = 3.00892e-07
DILUPBiCG:  Solving for omega, Initial residual = 0.0011565, Final residual = 1.57319e-06, No Iterations 1
DILUPBiCG:  Solving for k, Initial residual = 0.00559705, Final residual = 9.82053e-07, No Iterations 2
ExecutionTime = 15.21 s  ClockTime = 15 s

Courant Number mean: 0.27956 max: 0.617437
Time = 0.45

GAMG:  Solving for cellDisplacementx, Initial residual = 0, Final residual = 0, No Iterations 0
GAMG:  Solving for cellDisplacementy, Initial residual = 0, Final residual = 0, No Iterations 0
GAMG:  Solving for cellDisplacementz, Initial residual = 0, Final residual = 0, No Iterations 0
PIMPLE: iteration 1
DILUPBiCG:  Solving for Ux, Initial residual = 0.00417308, Final residual = 3.21331e-05, No Iterations 1
DILUPBiCG:  Solving for Uy, Initial residual = 0.000698691, Final residual = 1.01731e-05, No Iterations 1
DILUPBiCG:  Solving for Uz, Initial residual = 0.0116028, Final residual = 3.05006e-05, No Iterations 1
GAMG:  Solving for p, Initial residual = 0.0852952, Final residual = 0.000831905, No Iterations 6
GAMG:  Solving for p, Initial residual = 0.039716, Final residual = 0.000382024, No Iterations 5
GAMG:  Solving for p, Initial residual = 0.010877, Final residual = 0.000101586, No Iterations 16
time step continuity errors : sum local = 2.25818e-07, global = 6.95603e-08, cumulative = 3.70452e-07
GAMG:  Solving for p, Initial residual = 0.0453524, Final residual = 0.000383519, No Iterations 5
GAMG:  Solving for p, Initial residual = 0.0183485, Final residual = 0.000168976, No Iterations 6
GAMG:  Solving for p, Initial residual = 0.00502938, Final residual = 4.53774e-05, No Iterations 16
time step continuity errors : sum local = 1.01777e-07, global = 3.09226e-08, cumulative = 4.01375e-07
PIMPLE: iteration 2
DILUPBiCG:  Solving for Ux, Initial residual = 0.000747765, Final residual = 8.96522e-06, No Iterations 1
DILUPBiCG:  Solving for Uy, Initial residual = 0.000137767, Final residual = 4.28631e-09, No Iterations 2
DILUPBiCG:  Solving for Uz, Initial residual = 0.00400497, Final residual = 1.70594e-05, No Iterations 1
GAMG:  Solving for p, Initial residual = 0.0430389, Final residual = 0.000401034, No Iterations 11
GAMG:  Solving for p, Initial residual = 0.0277033, Final residual = 0.000242626, No Iterations 8
GAMG:  Solving for p, Initial residual = 0.00698869, Final residual = 6.72295e-05, No Iterations 16
time step continuity errors : sum local = 1.38223e-07, global = 4.0635e-08, cumulative = 4.4201e-07
GAMG:  Solving for p, Initial residual = 0.0235833, Final residual = 0.000235578, No Iterations 7
GAMG:  Solving for p, Initial residual = 0.0124041, Final residual = 0.000109347, No Iterations 10
GAMG:  Solving for p, Initial residual = 0.00356941, Final residual = 3.05868e-05, No Iterations 16
time step continuity errors : sum local = 6.3279e-08, global = 1.87167e-08, cumulative = 4.60727e-07
PIMPLE: iteration 3
DILUPBiCG:  Solving for Ux, Initial residual = 0.000106615, Final residual = 1.26783e-06, No Iterations 1
DILUPBiCG:  Solving for Uy, Initial residual = 3.4329e-05, Final residual = 1.75697e-07, No Iterations 1
DILUPBiCG:  Solving for Uz, Initial residual = 0.00185743, Final residual = 1.57316e-07, No Iterations 2
GAMG:  Solving for p, Initial residual = 0.0884827, Final residual = 0.000665722, No Iterations 4
GAMG:  Solving for p, Initial residual = 0.0219202, Final residual = 0.000204298, No Iterations 11
GAMG:  Solving for p, Initial residual = 0.0130247, Final residual = 0.000116238, No Iterations 8
time step continuity errors : sum local = 2.49123e-07, global = 5.84681e-08, cumulative = 5.19195e-07
GAMG:  Solving for p, Initial residual = 0.00780704, Final residual = 5.25889e-05, No Iterations 5
GAMG:  Solving for p, Initial residual = 0.00426833, Final residual = 3.5255e-05, No Iterations 4
GAMG:  Solving for p, Initial residual = 0.00148736, Final residual = 9.6022e-07, No Iterations 28
time step continuity errors : sum local = 2.02985e-09, global = -5.95077e-10, cumulative = 5.186e-07
DILUPBiCG:  Solving for omega, Initial residual = 0.00112026, Final residual = 1.54304e-06, No Iterations 1
DILUPBiCG:  Solving for k, Initial residual = 0.00540392, Final residual = 1.02833e-06, No Iterations 2
ExecutionTime = 30.16 s  ClockTime = 30 s

End

