/*---------------------------------------------------------------------------*\
| =========                 |                                                 |
| \\      /  F ield         | OpenFOAM: The Open Source CFD Toolbox           |
|  \\    /   O peration     | Version:  2.3.1                                 |
|   \\  /    A nd           | Web:      www.OpenFOAM.org                      |
|    \\/     M anipulation  |                                                 |
\*---------------------------------------------------------------------------*/
Build  : 2.3.1-262087cdf8db
Exec   : pimpleDyMFoam
Date   : Jun 06 2023
Time   : 10:59:04
Host   : "jcosson-VirtualBox"
PID    : 9629
Case   : /home/jcosson/workspace/henersj_shootingdata/calcs/moderate_deformed/primal/28_intervals_05-06-23/sweep12/interval22
nProcs : 1
sigFpe : Enabling floating point exception trapping (FOAM_SIGFPE).
fileModificationChecking : Monitoring run-time modified files using timeStampMaster
allowSystemOperations : Allowing user-supplied system call operations

// * * * * * * * * * * * * * * * * * * * * * * * * * * * * * * * * * * * * * //
Create time

Create mesh for time = 0.475

Selecting dynamicFvMesh dynamicMotionSolverFvMesh
Selecting motion solver: displacementLaplacian
Selecting motion diffusion: quadratic
Selecting motion diffusion: quadratic
Selecting motion diffusion: inverseDistance

PIMPLE: no residual control data found. Calculations will employ 3 corrector loops

Reading field p

Reading field U

Reading/calculating face flux field phi

Selecting incompressible transport model Newtonian
Selecting turbulence model type RASModel
Selecting RAS turbulence model kOmegaSST
kOmegaSSTCoeffs
{
    alphaK1         0.85034;
    alphaK2         1;
    alphaOmega1     0.5;
    alphaOmega2     0.85616;
    gamma1          0.5532;
    gamma2          0.4403;
    beta1           0.075;
    beta2           0.0828;
    betaStar        0.09;
    a1              0.31;
    c1              10;
    Cmu             0.09;
    b1              1;
    F3              false;
}

Reading/calculating face velocity Uf

No finite volume options present

Courant Number mean: 0.189186 max: 0.415323

Starting time loop

Courant Number mean: 0.189186 max: 0.415323
Time = 0.476

GAMG:  Solving for cellDisplacementx, Initial residual = 0, Final residual = 0, No Iterations 0
GAMG:  Solving for cellDisplacementy, Initial residual = 0, Final residual = 0, No Iterations 0
GAMG:  Solving for cellDisplacementz, Initial residual = 0, Final residual = 0, No Iterations 0
PIMPLE: iteration 1
DILUPBiCG:  Solving for Ux, Initial residual = 0.0587071, Final residual = 0.000239061, No Iterations 1
DILUPBiCG:  Solving for Uy, Initial residual = 0.00992935, Final residual = 2.20245e-05, No Iterations 1
DILUPBiCG:  Solving for Uz, Initial residual = 0.0109618, Final residual = 2.43776e-05, No Iterations 1
GAMG:  Solving for p, Initial residual = 0.123503, Final residual = 0.000898043, No Iterations 6
GAMG:  Solving for p, Initial residual = 0.0144156, Final residual = 0.000137001, No Iterations 18
GAMG:  Solving for p, Initial residual = 0.00637491, Final residual = 5.45067e-05, No Iterations 12
time step continuity errors : sum local = 8.35351e-07, global = 2.52292e-07, cumulative = 2.52292e-07
GAMG:  Solving for p, Initial residual = 0.0529572, Final residual = 0.000508347, No Iterations 4
GAMG:  Solving for p, Initial residual = 0.00731033, Final residual = 6.86251e-05, No Iterations 18
GAMG:  Solving for p, Initial residual = 0.00340262, Final residual = 3.35853e-05, No Iterations 10
time step continuity errors : sum local = 5.15323e-07, global = 1.39188e-07, cumulative = 3.9148e-07
PIMPLE: iteration 2
DILUPBiCG:  Solving for Ux, Initial residual = 0.0166337, Final residual = 0.000100743, No Iterations 1
DILUPBiCG:  Solving for Uy, Initial residual = 0.00296628, Final residual = 6.48657e-06, No Iterations 1
DILUPBiCG:  Solving for Uz, Initial residual = 0.00315669, Final residual = 1.2358e-05, No Iterations 1
GAMG:  Solving for p, Initial residual = 0.0529803, Final residual = 0.00047629, No Iterations 4
GAMG:  Solving for p, Initial residual = 0.00875856, Final residual = 8.53039e-05, No Iterations 16
GAMG:  Solving for p, Initial residual = 0.00394091, Final residual = 3.59886e-05, No Iterations 10
time step continuity errors : sum local = 4.72847e-07, global = -1.26188e-07, cumulative = 2.65292e-07
GAMG:  Solving for p, Initial residual = 0.0273191, Final residual = 0.000209678, No Iterations 4
GAMG:  Solving for p, Initial residual = 0.00436773, Final residual = 3.98158e-05, No Iterations 14
GAMG:  Solving for p, Initial residual = 0.00185598, Final residual = 1.74224e-05, No Iterations 10
time step continuity errors : sum local = 2.30079e-07, global = -6.00456e-08, cumulative = 2.05246e-07
PIMPLE: iteration 3
DILUPBiCG:  Solving for Ux, Initial residual = 0.00398765, Final residual = 2.74441e-06, No Iterations 2
DILUPBiCG:  Solving for Uy, Initial residual = 0.000715701, Final residual = 6.23247e-06, No Iterations 1
DILUPBiCG:  Solving for Uz, Initial residual = 0.0070225, Final residual = 4.30083e-06, No Iterations 2
GAMG:  Solving for p, Initial residual = 0.0406292, Final residual = 0.000358901, No Iterations 5
GAMG:  Solving for p, Initial residual = 0.00936176, Final residual = 7.60858e-05, No Iterations 9
GAMG:  Solving for p, Initial residual = 0.00435218, Final residual = 4.14178e-05, No Iterations 8
time step continuity errors : sum local = 6.1073e-07, global = -1.34196e-07, cumulative = 7.10499e-08
GAMG:  Solving for p, Initial residual = 0.00240769, Final residual = 2.08381e-05, No Iterations 18
GAMG:  Solving for p, Initial residual = 0.00132511, Final residual = 1.123e-05, No Iterations 4
GAMG:  Solving for p, Initial residual = 0.000536682, Final residual = 9.22225e-07, No Iterations 30
time step continuity errors : sum local = 1.35319e-08, global = 4.01528e-09, cumulative = 7.50652e-08
DILUPBiCG:  Solving for omega, Initial residual = 0.000659988, Final residual = 6.69461e-07, No Iterations 1
DILUPBiCG:  Solving for k, Initial residual = 0.00424247, Final residual = 1.32359e-06, No Iterations 2
bounding k, min: 0 max: 0.000772501 average: 0.000164717
ExecutionTime = 17.65 s  ClockTime = 18 s

Courant Number mean: 0.183498 max: 0.402442
Time = 0.477

GAMG:  Solving for cellDisplacementx, Initial residual = 0, Final residual = 0, No Iterations 0
GAMG:  Solving for cellDisplacementy, Initial residual = 0, Final residual = 0, No Iterations 0
GAMG:  Solving for cellDisplacementz, Initial residual = 0, Final residual = 0, No Iterations 0
PIMPLE: iteration 1
DILUPBiCG:  Solving for Ux, Initial residual = 0.0602056, Final residual = 0.000243637, No Iterations 1
DILUPBiCG:  Solving for Uy, Initial residual = 0.0102571, Final residual = 2.25308e-05, No Iterations 1
DILUPBiCG:  Solving for Uz, Initial residual = 0.00935305, Final residual = 2.13374e-05, No Iterations 1
GAMG:  Solving for p, Initial residual = 0.115028, Final residual = 0.0008802, No Iterations 6
GAMG:  Solving for p, Initial residual = 0.0126208, Final residual = 0.000114105, No Iterations 20
GAMG:  Solving for p, Initial residual = 0.00571461, Final residual = 5.6009e-05, No Iterations 10
time step continuity errors : sum local = 8.62966e-07, global = 2.30709e-07, cumulative = 3.05774e-07
GAMG:  Solving for p, Initial residual = 0.0494259, Final residual = 0.000492255, No Iterations 4
GAMG:  Solving for p, Initial residual = 0.00642454, Final residual = 5.70214e-05, No Iterations 20
GAMG:  Solving for p, Initial residual = 0.00307385, Final residual = 2.78181e-05, No Iterations 10
time step continuity errors : sum local = 4.28973e-07, global = 1.13768e-07, cumulative = 4.19542e-07
PIMPLE: iteration 2
DILUPBiCG:  Solving for Ux, Initial residual = 0.016947, Final residual = 0.000102753, No Iterations 1
DILUPBiCG:  Solving for Uy, Initial residual = 0.00304739, Final residual = 6.60668e-06, No Iterations 1
DILUPBiCG:  Solving for Uz, Initial residual = 0.00306072, Final residual = 1.21124e-05, No Iterations 1
GAMG:  Solving for p, Initial residual = 0.0489039, Final residual = 0.000477998, No Iterations 4
GAMG:  Solving for p, Initial residual = 0.00776929, Final residual = 7.28785e-05, No Iterations 18
GAMG:  Solving for p, Initial residual = 0.00354767, Final residual = 3.38184e-05, No Iterations 8
time step continuity errors : sum local = 4.46497e-07, global = -1.38675e-07, cumulative = 2.80868e-07
GAMG:  Solving for p, Initial residual = 0.0252375, Final residual = 0.00021181, No Iterations 4
GAMG:  Solving for p, Initial residual = 0.00388748, Final residual = 3.38151e-05, No Iterations 16
GAMG:  Solving for p, Initial residual = 0.00163703, Final residual = 1.45046e-05, No Iterations 10
time step continuity errors : sum local = 1.92544e-07, global = -5.21346e-08, cumulative = 2.28733e-07
PIMPLE: iteration 3
DILUPBiCG:  Solving for Ux, Initial residual = 0.00402309, Final residual = 2.85859e-06, No Iterations 2
DILUPBiCG:  Solving for Uy, Initial residual = 0.000727581, Final residual = 6.09842e-06, No Iterations 1
DILUPBiCG:  Solving for Uz, Initial residual = 0.00681085, Final residual = 4.4742e-06, No Iterations 2
GAMG:  Solving for p, Initial residual = 0.040098, Final residual = 0.000342812, No Iterations 5
GAMG:  Solving for p, Initial residual = 0.0093302, Final residual = 9.07215e-05, No Iterations 7
GAMG:  Solving for p, Initial residual = 0.00427999, Final residual = 3.91802e-05, No Iterations 10
time step continuity errors : sum local = 5.81232e-07, global = -1.48898e-07, cumulative = 7.98347e-08
GAMG:  Solving for p, Initial residual = 0.0023635, Final residual = 2.24508e-05, No Iterations 16
GAMG:  Solving for p, Initial residual = 0.0013026, Final residual = 1.15786e-05, No Iterations 4
GAMG:  Solving for p, Initial residual = 0.000529731, Final residual = 9.6018e-07, No Iterations 30
time step continuity errors : sum local = 1.41627e-08, global = 4.20109e-09, cumulative = 8.40358e-08
DILUPBiCG:  Solving for omega, Initial residual = 0.000697805, Final residual = 6.83254e-07, No Iterations 1
DILUPBiCG:  Solving for k, Initial residual = 0.00418824, Final residual = 1.21177e-06, No Iterations 2
bounding k, min: 0 max: 0.000765293 average: 0.000163623
ExecutionTime = 33.8 s  ClockTime = 34 s

Courant Number mean: 0.177832 max: 0.389593
Time = 0.478

GAMG:  Solving for cellDisplacementx, Initial residual = 0, Final residual = 0, No Iterations 0
GAMG:  Solving for cellDisplacementy, Initial residual = 0, Final residual = 0, No Iterations 0
GAMG:  Solving for cellDisplacementz, Initial residual = 0, Final residual = 0, No Iterations 0
PIMPLE: iteration 1
DILUPBiCG:  Solving for Ux, Initial residual = 0.0614924, Final residual = 0.000247361, No Iterations 1
DILUPBiCG:  Solving for Uy, Initial residual = 0.0105706, Final residual = 2.30221e-05, No Iterations 1
DILUPBiCG:  Solving for Uz, Initial residual = 0.00929131, Final residual = 2.00411e-05, No Iterations 1
GAMG:  Solving for p, Initial residual = 0.114221, Final residual = 0.000852668, No Iterations 6
GAMG:  Solving for p, Initial residual = 0.0126011, Final residual = 0.000111943, No Iterations 20
GAMG:  Solving for p, Initial residual = 0.00575011, Final residual = 5.45088e-05, No Iterations 10
time step continuity errors : sum local = 8.40238e-07, global = 2.25639e-07, cumulative = 3.09675e-07
GAMG:  Solving for p, Initial residual = 0.0492322, Final residual = 0.000486116, No Iterations 4
GAMG:  Solving for p, Initial residual = 0.0064091, Final residual = 5.64124e-05, No Iterations 20
GAMG:  Solving for p, Initial residual = 0.00308198, Final residual = 2.74241e-05, No Iterations 10
time step continuity errors : sum local = 4.23283e-07, global = 1.12797e-07, cumulative = 4.22472e-07
PIMPLE: iteration 2
DILUPBiCG:  Solving for Ux, Initial residual = 0.0171993, Final residual = 0.00010426, No Iterations 1
DILUPBiCG:  Solving for Uy, Initial residual = 0.00312011, Final residual = 6.70773e-06, No Iterations 1
DILUPBiCG:  Solving for Uz, Initial residual = 0.00301014, Final residual = 1.18768e-05, No Iterations 1
GAMG:  Solving for p, Initial residual = 0.0486138, Final residual = 0.00047883, No Iterations 4
GAMG:  Solving for p, Initial residual = 0.00776451, Final residual = 7.32372e-05, No Iterations 18
GAMG:  Solving for p, Initial residual = 0.00353397, Final residual = 3.41021e-05, No Iterations 8
time step continuity errors : sum local = 4.51306e-07, global = -1.41076e-07, cumulative = 2.81395e-07
GAMG:  Solving for p, Initial residual = 0.0251065, Final residual = 0.000212744, No Iterations 4
GAMG:  Solving for p, Initial residual = 0.00388328, Final residual = 3.41647e-05, No Iterations 16
GAMG:  Solving for p, Initial residual = 0.00163573, Final residual = 1.47674e-05, No Iterations 10
time step continuity errors : sum local = 1.96481e-07, global = -5.29658e-08, cumulative = 2.28429e-07
PIMPLE: iteration 3
DILUPBiCG:  Solving for Ux, Initial residual = 0.00405364, Final residual = 2.94564e-06, No Iterations 2
DILUPBiCG:  Solving for Uy, Initial residual = 0.000741813, Final residual = 5.93253e-06, No Iterations 1
DILUPBiCG:  Solving for Uz, Initial residual = 0.00682447, Final residual = 4.3095e-06, No Iterations 2
GAMG:  Solving for p, Initial residual = 0.0402894, Final residual = 0.000336453, No Iterations 5
GAMG:  Solving for p, Initial residual = 0.00935829, Final residual = 8.87367e-05, No Iterations 7
GAMG:  Solving for p, Initial residual = 0.00429344, Final residual = 3.92663e-05, No Iterations 10
time step continuity errors : sum local = 5.84005e-07, global = -1.49741e-07, cumulative = 7.86886e-08
GAMG:  Solving for p, Initial residual = 0.00235335, Final residual = 2.11587e-05, No Iterations 16
GAMG:  Solving for p, Initial residual = 0.00129667, Final residual = 1.11222e-05, No Iterations 4
GAMG:  Solving for p, Initial residual = 0.000528077, Final residual = 9.63501e-07, No Iterations 28
time step continuity errors : sum local = 1.42432e-08, global = 4.23601e-09, cumulative = 8.29246e-08
DILUPBiCG:  Solving for omega, Initial residual = 0.000736928, Final residual = 6.96622e-07, No Iterations 1
DILUPBiCG:  Solving for k, Initial residual = 0.0041346, Final residual = 1.09396e-06, No Iterations 2
bounding k, min: 0 max: 0.000757132 average: 0.000162527
ExecutionTime = 49.89 s  ClockTime = 50 s

Courant Number mean: 0.172213 max: 0.377417
Time = 0.479

GAMG:  Solving for cellDisplacementx, Initial residual = 0, Final residual = 0, No Iterations 0
GAMG:  Solving for cellDisplacementy, Initial residual = 0, Final residual = 0, No Iterations 0
GAMG:  Solving for cellDisplacementz, Initial residual = 0, Final residual = 0, No Iterations 0
PIMPLE: iteration 1
DILUPBiCG:  Solving for Ux, Initial residual = 0.0626068, Final residual = 0.000250149, No Iterations 1
DILUPBiCG:  Solving for Uy, Initial residual = 0.0108687, Final residual = 2.34827e-05, No Iterations 1
DILUPBiCG:  Solving for Uz, Initial residual = 0.00909862, Final residual = 1.88943e-05, No Iterations 1
GAMG:  Solving for p, Initial residual = 0.113533, Final residual = 0.000832788, No Iterations 6
GAMG:  Solving for p, Initial residual = 0.0125617, Final residual = 0.000109575, No Iterations 20
GAMG:  Solving for p, Initial residual = 0.00573312, Final residual = 5.33017e-05, No Iterations 10
time step continuity errors : sum local = 8.19003e-07, global = 2.177e-07, cumulative = 3.00624e-07
GAMG:  Solving for p, Initial residual = 0.0490792, Final residual = 0.00046755, No Iterations 4
GAMG:  Solving for p, Initial residual = 0.00637865, Final residual = 5.49973e-05, No Iterations 20
GAMG:  Solving for p, Initial residual = 0.0030716, Final residual = 2.65834e-05, No Iterations 10
time step continuity errors : sum local = 4.09075e-07, global = 1.08314e-07, cumulative = 4.08938e-07
PIMPLE: iteration 2
DILUPBiCG:  Solving for Ux, Initial residual = 0.0173907, Final residual = 0.000105291, No Iterations 1
DILUPBiCG:  Solving for Uy, Initial residual = 0.00318397, Final residual = 6.78743e-06, No Iterations 1
DILUPBiCG:  Solving for Uz, Initial residual = 0.00294485, Final residual = 1.16102e-05, No Iterations 1
GAMG:  Solving for p, Initial residual = 0.0483732, Final residual = 0.000478535, No Iterations 4
GAMG:  Solving for p, Initial residual = 0.00780503, Final residual = 7.26169e-05, No Iterations 18
GAMG:  Solving for p, Initial residual = 0.00352063, Final residual = 3.37423e-05, No Iterations 8
time step continuity errors : sum local = 4.45781e-07, global = -1.3377e-07, cumulative = 2.75168e-07
GAMG:  Solving for p, Initial residual = 0.0250066, Final residual = 0.000213838, No Iterations 4
GAMG:  Solving for p, Initial residual = 0.0039253, Final residual = 3.4026e-05, No Iterations 16
GAMG:  Solving for p, Initial residual = 0.00162831, Final residual = 1.45919e-05, No Iterations 10
time step continuity errors : sum local = 1.93784e-07, global = -5.17673e-08, cumulative = 2.234e-07
PIMPLE: iteration 3
DILUPBiCG:  Solving for Ux, Initial residual = 0.00406318, Final residual = 3.01666e-06, No Iterations 2
DILUPBiCG:  Solving for Uy, Initial residual = 0.00075134, Final residual = 5.78304e-06, No Iterations 1
DILUPBiCG:  Solving for Uz, Initial residual = 0.00653997, Final residual = 4.35974e-06, No Iterations 2
GAMG:  Solving for p, Initial residual = 0.0404897, Final residual = 0.000355055, No Iterations 5
GAMG:  Solving for p, Initial residual = 0.00937552, Final residual = 6.50711e-05, No Iterations 5
GAMG:  Solving for p, Initial residual = 0.0043566, Final residual = 4.12056e-05, No Iterations 4
time step continuity errors : sum local = 6.11419e-07, global = -1.84056e-07, cumulative = 3.93447e-08
GAMG:  Solving for p, Initial residual = 0.00234719, Final residual = 2.2747e-05, No Iterations 16
GAMG:  Solving for p, Initial residual = 0.00128639, Final residual = 1.15171e-05, No Iterations 4
GAMG:  Solving for p, Initial residual = 0.000527527, Final residual = 9.12648e-07, No Iterations 30
time step continuity errors : sum local = 1.34591e-08, global = 3.99411e-09, cumulative = 4.33388e-08
DILUPBiCG:  Solving for omega, Initial residual = 0.000776778, Final residual = 7.09203e-07, No Iterations 1
DILUPBiCG:  Solving for k, Initial residual = 0.00408218, Final residual = 9.7839e-07, No Iterations 2
bounding k, min: 0 max: 0.000748059 average: 0.000161434
ExecutionTime = 60.14 s  ClockTime = 60 s

End

