/*---------------------------------------------------------------------------*\
| =========                 |                                                 |
| \\      /  F ield         | OpenFOAM: The Open Source CFD Toolbox           |
|  \\    /   O peration     | Version:  2.3.1                                 |
|   \\  /    A nd           | Web:      www.OpenFOAM.org                      |
|    \\/     M anipulation  |                                                 |
\*---------------------------------------------------------------------------*/
Build  : 2.3.1-262087cdf8db
Exec   : linearisedPimpleDyMFoam
Date   : Jun 06 2023
Time   : 02:33:48
Host   : "jcosson-VirtualBox"
PID    : 2819
Case   : /home/jcosson/workspace/henersj_shootingdata/calcs/moderate_deformed/primal/100_intervals_05-06-23/sweep65/interval90
nProcs : 1
sigFpe : Enabling floating point exception trapping (FOAM_SIGFPE).
fileModificationChecking : Monitoring run-time modified files using timeStampMaster
allowSystemOperations : Allowing user-supplied system call operations

// * * * * * * * * * * * * * * * * * * * * * * * * * * * * * * * * * * * * * //
Create time

Create mesh for time = 0.489

Selecting dynamicFvMesh dynamicMotionSolverFvMesh
Selecting motion solver: displacementLaplacian
Selecting motion diffusion: quadratic
Selecting motion diffusion: quadratic
Selecting motion diffusion: inverseDistance
Reading field linP

Reading field linU

starte createPhia.H

Reading/calculating face flux field linPhi

Adjungierte Interpolation durchgefuehrt

createPhia.H verlassen

setRefCell ausgefuehrt

No finite volume options present


PIMPLE: no residual control data found. Calculations will employ 3 corrector loops


Starting time loop

Time = 0.49

Reading field p

Reading field U

Read primal fluxes 

Reading primal face flux fields phi/meshPhi

Created primal fluxes 

Selecting incompressible transport model Newtonian
singlePhaseTransportModel gewaehlt 

Selecting turbulence model type RASModel
Selecting RAS turbulence model kOmegaSST
bounding k, min: 0 max: 0.000595035 average: 0.000149318
kOmegaSSTCoeffs
{
    alphaK1         0.85034;
    alphaK2         1;
    alphaOmega1     0.5;
    alphaOmega2     0.85616;
    gamma1          0.5532;
    gamma2          0.4403;
    beta1           0.075;
    beta2           0.0828;
    betaStar        0.09;
    a1              0.31;
    c1              10;
    Cmu             0.09;
    b1              1;
    F3              false;
}

autoPtr ausgefuehrt

Reading/calculating face velocity Uf

Init adjoint face velocity linUf

Courant Number mean: 0.115782 max: 0.251427
Adjoint Courant Number mean: 0.00012347 max: 0.00146447
GAMG:  Solving for cellDisplacementx, Initial residual = 0, Final residual = 0, No Iterations 0
GAMG:  Solving for cellDisplacementy, Initial residual = 0, Final residual = 0, No Iterations 0
GAMG:  Solving for cellDisplacementz, Initial residual = 0, Final residual = 0, No Iterations 0
PIMPLE: iteration 1
DILUPBiCG:  Solving for linUx, Initial residual = 0.0142042, Final residual = 4.38617e-05, No Iterations 1
DILUPBiCG:  Solving for linUy, Initial residual = 0.0269131, Final residual = 6.20846e-05, No Iterations 1
DILUPBiCG:  Solving for linUz, Initial residual = 0.0533181, Final residual = 9.9251e-05, No Iterations 1
GAMG:  Solving for linP, Initial residual = 1, Final residual = 0.00441738, No Iterations 3
GAMG:  Solving for linP, Initial residual = 0.0243969, Final residual = 0.000186361, No Iterations 4
GAMG:  Solving for linP, Initial residual = 0.00787253, Final residual = 7.06343e-05, No Iterations 3
Adjoint continuity errors : sum local = 3.19284e-09, global = 3.73225e-11, cumulative = 3.73225e-11
GAMG:  Solving for linP, Initial residual = 0.0229758, Final residual = 0.000103043, No Iterations 4
GAMG:  Solving for linP, Initial residual = 0.00463308, Final residual = 2.86253e-05, No Iterations 4
GAMG:  Solving for linP, Initial residual = 0.00163743, Final residual = 1.54466e-05, No Iterations 4
Adjoint continuity errors : sum local = 6.75924e-10, global = -2.06615e-11, cumulative = 1.6661e-11
PIMPLE: iteration 2
DILUPBiCG:  Solving for linUx, Initial residual = 0.00125402, Final residual = 7.65269e-06, No Iterations 1
DILUPBiCG:  Solving for linUy, Initial residual = 0.00253897, Final residual = 3.83849e-05, No Iterations 1
DILUPBiCG:  Solving for linUz, Initial residual = 0.0035252, Final residual = 9.29697e-06, No Iterations 1
GAMG:  Solving for linP, Initial residual = 0.0272793, Final residual = 0.000104649, No Iterations 3
GAMG:  Solving for linP, Initial residual = 0.00269228, Final residual = 2.02401e-05, No Iterations 3
GAMG:  Solving for linP, Initial residual = 0.00078014, Final residual = 2.70854e-06, No Iterations 4
Adjoint continuity errors : sum local = 1.21181e-10, global = -1.92412e-11, cumulative = -2.58016e-12
GAMG:  Solving for linP, Initial residual = 0.0011068, Final residual = 1.07395e-05, No Iterations 3
GAMG:  Solving for linP, Initial residual = 0.000339747, Final residual = 2.01607e-06, No Iterations 4
GAMG:  Solving for linP, Initial residual = 0.00011536, Final residual = 5.9323e-07, No Iterations 4
Adjoint continuity errors : sum local = 2.65292e-11, global = 8.41109e-12, cumulative = 5.83093e-12
PIMPLE: iteration 3
DILUPBiCG:  Solving for linUx, Initial residual = 0.000139672, Final residual = 9.41988e-07, No Iterations 1
DILUPBiCG:  Solving for linUy, Initial residual = 0.000247872, Final residual = 2.22782e-06, No Iterations 1
DILUPBiCG:  Solving for linUz, Initial residual = 0.000315161, Final residual = 1.94325e-06, No Iterations 1
GAMG:  Solving for linP, Initial residual = 0.03559, Final residual = 0.00030185, No Iterations 2
GAMG:  Solving for linP, Initial residual = 0.00192478, Final residual = 7.68486e-06, No Iterations 4
GAMG:  Solving for linP, Initial residual = 0.000678607, Final residual = 2.515e-06, No Iterations 4
Adjoint continuity errors : sum local = 1.17652e-10, global = 1.42602e-11, cumulative = 2.00911e-11
GAMG:  Solving for linP, Initial residual = 0.00106835, Final residual = 5.31136e-06, No Iterations 3
GAMG:  Solving for linP, Initial residual = 0.000178838, Final residual = 1.54492e-06, No Iterations 4
GAMG:  Solving for linP, Initial residual = 6.98261e-05, Final residual = 6.81152e-07, No Iterations 3
Adjoint continuity errors : sum local = 3.19054e-11, global = 3.5501e-12, cumulative = 2.36412e-11
ExecutionTime = 11.36 s  ClockTime = 12 s

End

