/*---------------------------------------------------------------------------*\
| =========                 |                                                 |
| \\      /  F ield         | OpenFOAM: The Open Source CFD Toolbox           |
|  \\    /   O peration     | Version:  2.3.1                                 |
|   \\  /    A nd           | Web:      www.OpenFOAM.org                      |
|    \\/     M anipulation  |                                                 |
\*---------------------------------------------------------------------------*/
Build  : 2.3.1-262087cdf8db
Exec   : pimpleDyMFoam
Date   : Jun 06 2023
Time   : 02:32:24
Host   : "jcosson-VirtualBox"
PID    : 1798
Case   : /home/jcosson/workspace/henersj_shootingdata/calcs/moderate_deformed/primal/100_intervals_05-06-23/sweep65/interval76
nProcs : 1
sigFpe : Enabling floating point exception trapping (FOAM_SIGFPE).
fileModificationChecking : Monitoring run-time modified files using timeStampMaster
allowSystemOperations : Allowing user-supplied system call operations

// * * * * * * * * * * * * * * * * * * * * * * * * * * * * * * * * * * * * * //
Create time

Create mesh for time = 0.475

Selecting dynamicFvMesh dynamicMotionSolverFvMesh
Selecting motion solver: displacementLaplacian
Selecting motion diffusion: quadratic
Selecting motion diffusion: quadratic
Selecting motion diffusion: inverseDistance

PIMPLE: no residual control data found. Calculations will employ 3 corrector loops

Reading field p

Reading field U

Reading/calculating face flux field phi

Selecting incompressible transport model Newtonian
Selecting turbulence model type RASModel
Selecting RAS turbulence model kOmegaSST
kOmegaSSTCoeffs
{
    alphaK1         0.85034;
    alphaK2         1;
    alphaOmega1     0.5;
    alphaOmega2     0.85616;
    gamma1          0.5532;
    gamma2          0.4403;
    beta1           0.075;
    beta2           0.0828;
    betaStar        0.09;
    a1              0.31;
    c1              10;
    Cmu             0.09;
    b1              1;
    F3              false;
}

Reading/calculating face velocity Uf

No finite volume options present

Courant Number mean: 0.189002 max: 0.41797

Starting time loop

Courant Number mean: 0.189002 max: 0.41797
Time = 0.476

GAMG:  Solving for cellDisplacementx, Initial residual = 0, Final residual = 0, No Iterations 0
GAMG:  Solving for cellDisplacementy, Initial residual = 0, Final residual = 0, No Iterations 0
GAMG:  Solving for cellDisplacementz, Initial residual = 0, Final residual = 0, No Iterations 0
PIMPLE: iteration 1
DILUPBiCG:  Solving for Ux, Initial residual = 0.0588379, Final residual = 0.000240611, No Iterations 1
DILUPBiCG:  Solving for Uy, Initial residual = 0.00994372, Final residual = 2.25931e-05, No Iterations 1
DILUPBiCG:  Solving for Uz, Initial residual = 0.0115763, Final residual = 2.40287e-05, No Iterations 1
GAMG:  Solving for p, Initial residual = 0.12329, Final residual = 0.000893867, No Iterations 6
GAMG:  Solving for p, Initial residual = 0.0142986, Final residual = 0.000136249, No Iterations 18
GAMG:  Solving for p, Initial residual = 0.0063141, Final residual = 5.44688e-05, No Iterations 12
time step continuity errors : sum local = 8.38007e-07, global = 2.52656e-07, cumulative = 2.52656e-07
GAMG:  Solving for p, Initial residual = 0.0528985, Final residual = 0.000505068, No Iterations 4
GAMG:  Solving for p, Initial residual = 0.00725704, Final residual = 6.8214e-05, No Iterations 18
GAMG:  Solving for p, Initial residual = 0.00337586, Final residual = 3.35046e-05, No Iterations 10
time step continuity errors : sum local = 5.16051e-07, global = 1.39251e-07, cumulative = 3.91907e-07
PIMPLE: iteration 2
DILUPBiCG:  Solving for Ux, Initial residual = 0.016674, Final residual = 9.98021e-05, No Iterations 1
DILUPBiCG:  Solving for Uy, Initial residual = 0.00297077, Final residual = 6.64459e-06, No Iterations 1
DILUPBiCG:  Solving for Uz, Initial residual = 0.0033797, Final residual = 1.20843e-05, No Iterations 1
GAMG:  Solving for p, Initial residual = 0.0529222, Final residual = 0.000474382, No Iterations 4
GAMG:  Solving for p, Initial residual = 0.00873845, Final residual = 8.4292e-05, No Iterations 16
GAMG:  Solving for p, Initial residual = 0.00391967, Final residual = 3.54829e-05, No Iterations 10
time step continuity errors : sum local = 4.68077e-07, global = -1.25102e-07, cumulative = 2.66805e-07
GAMG:  Solving for p, Initial residual = 0.0272924, Final residual = 0.000208966, No Iterations 4
GAMG:  Solving for p, Initial residual = 0.00436735, Final residual = 3.93447e-05, No Iterations 14
GAMG:  Solving for p, Initial residual = 0.00184663, Final residual = 1.71909e-05, No Iterations 10
time step continuity errors : sum local = 2.27927e-07, global = -5.9526e-08, cumulative = 2.07279e-07
PIMPLE: iteration 3
DILUPBiCG:  Solving for Ux, Initial residual = 0.0039973, Final residual = 2.39432e-06, No Iterations 2
DILUPBiCG:  Solving for Uy, Initial residual = 0.000715534, Final residual = 6.21587e-06, No Iterations 1
DILUPBiCG:  Solving for Uz, Initial residual = 0.00714533, Final residual = 3.67184e-06, No Iterations 2
GAMG:  Solving for p, Initial residual = 0.0406393, Final residual = 0.00036209, No Iterations 5
GAMG:  Solving for p, Initial residual = 0.00929929, Final residual = 7.97394e-05, No Iterations 9
GAMG:  Solving for p, Initial residual = 0.0043375, Final residual = 3.55817e-05, No Iterations 10
time step continuity errors : sum local = 5.26978e-07, global = -1.35298e-07, cumulative = 7.19808e-08
GAMG:  Solving for p, Initial residual = 0.00239405, Final residual = 2.19968e-05, No Iterations 18
GAMG:  Solving for p, Initial residual = 0.00131832, Final residual = 1.18493e-05, No Iterations 4
GAMG:  Solving for p, Initial residual = 0.000533078, Final residual = 8.67622e-07, No Iterations 34
time step continuity errors : sum local = 1.27821e-08, global = 3.75081e-09, cumulative = 7.57316e-08
DILUPBiCG:  Solving for omega, Initial residual = 0.000635696, Final residual = 6.36644e-07, No Iterations 1
DILUPBiCG:  Solving for k, Initial residual = 0.00424389, Final residual = 1.46378e-06, No Iterations 2
ExecutionTime = 18.61 s  ClockTime = 19 s

End

