/*---------------------------------------------------------------------------*\
| =========                 |                                                 |
| \\      /  F ield         | OpenFOAM: The Open Source CFD Toolbox           |
|  \\    /   O peration     | Version:  2.3.1                                 |
|   \\  /    A nd           | Web:      www.OpenFOAM.org                      |
|    \\/     M anipulation  |                                                 |
\*---------------------------------------------------------------------------*/
Build  : 2.3.1-262087cdf8db
Exec   : linearisedPimpleDyMFoam
Date   : Jun 05 2023
Time   : 23:46:47
Host   : "jcosson-VirtualBox"
PID    : 15472
Case   : /home/jcosson/workspace/henersj_shootingdata/calcs/moderate_deformed/primal/100_intervals_05-06-23/sweep6/interval79
nProcs : 1
sigFpe : Enabling floating point exception trapping (FOAM_SIGFPE).
fileModificationChecking : Monitoring run-time modified files using timeStampMaster
allowSystemOperations : Allowing user-supplied system call operations

// * * * * * * * * * * * * * * * * * * * * * * * * * * * * * * * * * * * * * //
Create time

Create mesh for time = 0.478

Selecting dynamicFvMesh dynamicMotionSolverFvMesh
Selecting motion solver: displacementLaplacian
Selecting motion diffusion: quadratic
Selecting motion diffusion: quadratic
Selecting motion diffusion: inverseDistance
Reading field linP

Reading field linU

starte createPhia.H

Reading/calculating face flux field linPhi

Adjungierte Interpolation durchgefuehrt

createPhia.H verlassen

setRefCell ausgefuehrt

No finite volume options present


PIMPLE: no residual control data found. Calculations will employ 3 corrector loops


Starting time loop

Time = 0.479

Reading field p

Reading field U

Read primal fluxes 

Reading primal face flux fields phi/meshPhi

Created primal fluxes 

Selecting incompressible transport model Newtonian
singlePhaseTransportModel gewaehlt 

Selecting turbulence model type RASModel
Selecting RAS turbulence model kOmegaSST
kOmegaSSTCoeffs
{
    alphaK1         0.85034;
    alphaK2         1;
    alphaOmega1     0.5;
    alphaOmega2     0.85616;
    gamma1          0.5532;
    gamma2          0.4403;
    beta1           0.075;
    beta2           0.0828;
    betaStar        0.09;
    a1              0.31;
    c1              10;
    Cmu             0.09;
    b1              1;
    F3              false;
}

autoPtr ausgefuehrt

Reading/calculating face velocity Uf

Init adjoint face velocity linUf

Courant Number mean: 0.16601 max: 0.367173
Adjoint Courant Number mean: 0.000172039 max: 0.00460776
GAMG:  Solving for cellDisplacementx, Initial residual = 0, Final residual = 0, No Iterations 0
GAMG:  Solving for cellDisplacementy, Initial residual = 0, Final residual = 0, No Iterations 0
GAMG:  Solving for cellDisplacementz, Initial residual = 0, Final residual = 0, No Iterations 0
PIMPLE: iteration 1
DILUPBiCG:  Solving for linUx, Initial residual = 0.0531902, Final residual = 0.000118349, No Iterations 1
DILUPBiCG:  Solving for linUy, Initial residual = 0.0945389, Final residual = 0.000130049, No Iterations 1
DILUPBiCG:  Solving for linUz, Initial residual = 0.0949025, Final residual = 0.000152782, No Iterations 1
GAMG:  Solving for linP, Initial residual = 1, Final residual = 0.00607422, No Iterations 3
GAMG:  Solving for linP, Initial residual = 0.0385185, Final residual = 0.000277311, No Iterations 4
GAMG:  Solving for linP, Initial residual = 0.0138817, Final residual = 0.000133515, No Iterations 4
Adjoint continuity errors : sum local = 4.19344e-08, global = -7.71427e-09, cumulative = -7.71427e-09
GAMG:  Solving for linP, Initial residual = 0.0251615, Final residual = 0.000249831, No Iterations 4
GAMG:  Solving for linP, Initial residual = 0.00790919, Final residual = 5.38144e-05, No Iterations 4
GAMG:  Solving for linP, Initial residual = 0.00250194, Final residual = 1.86981e-05, No Iterations 4
Adjoint continuity errors : sum local = 5.79915e-09, global = -6.28409e-10, cumulative = -8.34267e-09
PIMPLE: iteration 2
DILUPBiCG:  Solving for linUx, Initial residual = 0.0240166, Final residual = 0.000152629, No Iterations 1
DILUPBiCG:  Solving for linUy, Initial residual = 0.0363554, Final residual = 0.000107458, No Iterations 1
DILUPBiCG:  Solving for linUz, Initial residual = 0.0482438, Final residual = 0.000211001, No Iterations 1
GAMG:  Solving for linP, Initial residual = 0.0361609, Final residual = 0.000337444, No Iterations 3
GAMG:  Solving for linP, Initial residual = 0.00627858, Final residual = 3.48794e-05, No Iterations 4
GAMG:  Solving for linP, Initial residual = 0.00212451, Final residual = 1.53313e-05, No Iterations 4
Adjoint continuity errors : sum local = 4.6836e-09, global = -9.61698e-11, cumulative = -8.43884e-09
GAMG:  Solving for linP, Initial residual = 0.0027861, Final residual = 8.58488e-06, No Iterations 5
GAMG:  Solving for linP, Initial residual = 0.00111366, Final residual = 4.92071e-06, No Iterations 4
GAMG:  Solving for linP, Initial residual = 0.000350625, Final residual = 2.5489e-06, No Iterations 4
Adjoint continuity errors : sum local = 7.79096e-10, global = 3.72188e-11, cumulative = -8.40163e-09
PIMPLE: iteration 3
DILUPBiCG:  Solving for linUx, Initial residual = 0.00177883, Final residual = 6.17442e-06, No Iterations 2
DILUPBiCG:  Solving for linUy, Initial residual = 0.00232637, Final residual = 7.19766e-08, No Iterations 3
DILUPBiCG:  Solving for linUz, Initial residual = 0.00231044, Final residual = 3.8885e-08, No Iterations 3
GAMG:  Solving for linP, Initial residual = 0.0394973, Final residual = 0.000391912, No Iterations 2
GAMG:  Solving for linP, Initial residual = 0.00268695, Final residual = 1.84352e-05, No Iterations 4
GAMG:  Solving for linP, Initial residual = 0.00132818, Final residual = 7.13024e-06, No Iterations 4
Adjoint continuity errors : sum local = 2.24499e-09, global = 5.93431e-10, cumulative = -7.80819e-09
GAMG:  Solving for linP, Initial residual = 0.00138727, Final residual = 7.13315e-06, No Iterations 4
GAMG:  Solving for linP, Initial residual = 0.00031233, Final residual = 1.74389e-06, No Iterations 4
GAMG:  Solving for linP, Initial residual = 0.000116143, Final residual = 7.34852e-07, No Iterations 4
Adjoint continuity errors : sum local = 2.31333e-10, global = 1.24257e-11, cumulative = -7.79577e-09
ExecutionTime = 10.62 s  ClockTime = 10 s

End

