/*---------------------------------------------------------------------------*\
| =========                 |                                                 |
| \\      /  F ield         | OpenFOAM: The Open Source CFD Toolbox           |
|  \\    /   O peration     | Version:  2.3.1                                 |
|   \\  /    A nd           | Web:      www.OpenFOAM.org                      |
|    \\/     M anipulation  |                                                 |
\*---------------------------------------------------------------------------*/
Build  : 2.3.1-262087cdf8db
Exec   : pimpleDyMFoam
Date   : Jun 05 2023
Time   : 23:43:49
Host   : "jcosson-VirtualBox"
PID    : 13611
Case   : /home/jcosson/workspace/henersj_shootingdata/calcs/moderate_deformed/primal/100_intervals_05-06-23/sweep6/interval42
nProcs : 1
sigFpe : Enabling floating point exception trapping (FOAM_SIGFPE).
fileModificationChecking : Monitoring run-time modified files using timeStampMaster
allowSystemOperations : Allowing user-supplied system call operations

// * * * * * * * * * * * * * * * * * * * * * * * * * * * * * * * * * * * * * //
Create time

Create mesh for time = 0.441

Selecting dynamicFvMesh dynamicMotionSolverFvMesh
Selecting motion solver: displacementLaplacian
Selecting motion diffusion: quadratic
Selecting motion diffusion: quadratic
Selecting motion diffusion: inverseDistance

PIMPLE: no residual control data found. Calculations will employ 3 corrector loops

Reading field p

Reading field U

Reading/calculating face flux field phi

Selecting incompressible transport model Newtonian
Selecting turbulence model type RASModel
Selecting RAS turbulence model kOmegaSST
kOmegaSSTCoeffs
{
    alphaK1         0.85034;
    alphaK2         1;
    alphaOmega1     0.5;
    alphaOmega2     0.85616;
    gamma1          0.5532;
    gamma2          0.4403;
    beta1           0.075;
    beta2           0.0828;
    betaStar        0.09;
    a1              0.31;
    c1              10;
    Cmu             0.09;
    b1              1;
    F3              false;
}

Reading/calculating face velocity Uf

No finite volume options present

Courant Number mean: 0.265063 max: 0.591951

Starting time loop

Courant Number mean: 0.265063 max: 0.591951
Time = 0.442

GAMG:  Solving for cellDisplacementx, Initial residual = 0, Final residual = 0, No Iterations 0
GAMG:  Solving for cellDisplacementy, Initial residual = 0, Final residual = 0, No Iterations 0
GAMG:  Solving for cellDisplacementz, Initial residual = 0, Final residual = 0, No Iterations 0
PIMPLE: iteration 1
DILUPBiCG:  Solving for Ux, Initial residual = 0.024831, Final residual = 8.62146e-05, No Iterations 1
DILUPBiCG:  Solving for Uy, Initial residual = 0.00389722, Final residual = 1.09689e-05, No Iterations 1
DILUPBiCG:  Solving for Uz, Initial residual = 0.02131, Final residual = 4.28585e-05, No Iterations 1
GAMG:  Solving for p, Initial residual = 0.136205, Final residual = 0.000850518, No Iterations 4
GAMG:  Solving for p, Initial residual = 0.0194619, Final residual = 0.000188595, No Iterations 12
GAMG:  Solving for p, Initial residual = 0.00820987, Final residual = 7.80115e-05, No Iterations 10
time step continuity errors : sum local = 6.05932e-07, global = -1.54024e-07, cumulative = -1.54024e-07
GAMG:  Solving for p, Initial residual = 0.0609582, Final residual = 0.000329263, No Iterations 4
GAMG:  Solving for p, Initial residual = 0.00955354, Final residual = 9.27862e-05, No Iterations 10
GAMG:  Solving for p, Initial residual = 0.00413565, Final residual = 4.00943e-05, No Iterations 10
time step continuity errors : sum local = 3.1165e-07, global = -7.86997e-08, cumulative = -2.32724e-07
PIMPLE: iteration 2
DILUPBiCG:  Solving for Ux, Initial residual = 0.00686481, Final residual = 2.79255e-05, No Iterations 1
DILUPBiCG:  Solving for Uy, Initial residual = 0.00111451, Final residual = 6.13077e-06, No Iterations 1
DILUPBiCG:  Solving for Uz, Initial residual = 0.00411633, Final residual = 1.28596e-05, No Iterations 1
GAMG:  Solving for p, Initial residual = 0.0625132, Final residual = 0.00059501, No Iterations 5
GAMG:  Solving for p, Initial residual = 0.0140428, Final residual = 0.000123141, No Iterations 13
GAMG:  Solving for p, Initial residual = 0.0054954, Final residual = 4.98763e-05, No Iterations 12
time step continuity errors : sum local = 3.24495e-07, global = 9.48595e-08, cumulative = -1.37864e-07
GAMG:  Solving for p, Initial residual = 0.0329724, Final residual = 0.000309273, No Iterations 4
GAMG:  Solving for p, Initial residual = 0.00675169, Final residual = 6.57317e-05, No Iterations 12
GAMG:  Solving for p, Initial residual = 0.00267687, Final residual = 2.56214e-05, No Iterations 12
time step continuity errors : sum local = 1.67985e-07, global = 4.89595e-08, cumulative = -8.89048e-08
PIMPLE: iteration 3
DILUPBiCG:  Solving for Ux, Initial residual = 0.00145016, Final residual = 9.81616e-06, No Iterations 1
DILUPBiCG:  Solving for Uy, Initial residual = 0.000245256, Final residual = 9.78972e-06, No Iterations 1
DILUPBiCG:  Solving for Uz, Initial residual = 0.00489202, Final residual = 1.09393e-06, No Iterations 2
GAMG:  Solving for p, Initial residual = 0.0448632, Final residual = 0.000424524, No Iterations 5
GAMG:  Solving for p, Initial residual = 0.0119729, Final residual = 0.000109483, No Iterations 10
GAMG:  Solving for p, Initial residual = 0.004957, Final residual = 4.08744e-05, No Iterations 10
time step continuity errors : sum local = 2.99924e-07, global = 7.60295e-08, cumulative = -1.28753e-08
GAMG:  Solving for p, Initial residual = 0.00347347, Final residual = 3.44858e-05, No Iterations 18
GAMG:  Solving for p, Initial residual = 0.00204738, Final residual = 1.93876e-05, No Iterations 4
GAMG:  Solving for p, Initial residual = 0.000695297, Final residual = 9.47392e-07, No Iterations 42
time step continuity errors : sum local = 6.95888e-09, global = -2.06538e-09, cumulative = -1.49407e-08
DILUPBiCG:  Solving for omega, Initial residual = 0.00154918, Final residual = 2.00159e-06, No Iterations 1
DILUPBiCG:  Solving for k, Initial residual = 0.00659872, Final residual = 1.34189e-06, No Iterations 2
ExecutionTime = 17.26 s  ClockTime = 17 s

End

