/*---------------------------------------------------------------------------*\
| =========                 |                                                 |
| \\      /  F ield         | OpenFOAM: The Open Source CFD Toolbox           |
|  \\    /   O peration     | Version:  2.3.1                                 |
|   \\  /    A nd           | Web:      www.OpenFOAM.org                      |
|    \\/     M anipulation  |                                                 |
\*---------------------------------------------------------------------------*/
Build  : 2.3.1-262087cdf8db
Exec   : linearisedPimpleDyMFoam
Date   : Jun 05 2023
Time   : 23:26:04
Host   : "jcosson-VirtualBox"
PID    : 5323
Case   : /home/jcosson/workspace/henersj_shootingdata/calcs/moderate_deformed/primal/100_intervals_05-06-23/sweep1/interval69
nProcs : 1
sigFpe : Enabling floating point exception trapping (FOAM_SIGFPE).
fileModificationChecking : Monitoring run-time modified files using timeStampMaster
allowSystemOperations : Allowing user-supplied system call operations

// * * * * * * * * * * * * * * * * * * * * * * * * * * * * * * * * * * * * * //
Create time

Create mesh for time = 0.468

Selecting dynamicFvMesh dynamicMotionSolverFvMesh
Selecting motion solver: displacementLaplacian
Selecting motion diffusion: quadratic
Selecting motion diffusion: quadratic
Selecting motion diffusion: inverseDistance
Reading field linP

Reading field linU

starte createPhia.H

Reading/calculating face flux field linPhi

Adjungierte Interpolation durchgefuehrt

createPhia.H verlassen

setRefCell ausgefuehrt

No finite volume options present


PIMPLE: no residual control data found. Calculations will employ 3 corrector loops


Starting time loop

Time = 0.469

Reading field p

Reading field U

Read primal fluxes 

Reading primal face flux fields phi/meshPhi

Created primal fluxes 

Selecting incompressible transport model Newtonian
singlePhaseTransportModel gewaehlt 

Selecting turbulence model type RASModel
Selecting RAS turbulence model kOmegaSST
kOmegaSSTCoeffs
{
    alphaK1         0.85034;
    alphaK2         1;
    alphaOmega1     0.5;
    alphaOmega2     0.85616;
    gamma1          0.5532;
    gamma2          0.4403;
    beta1           0.075;
    beta2           0.0828;
    betaStar        0.09;
    a1              0.31;
    c1              10;
    Cmu             0.09;
    b1              1;
    F3              false;
}

autoPtr ausgefuehrt

Reading/calculating face velocity Uf

Init adjoint face velocity linUf

Courant Number mean: 0.222147 max: 0.496171
Adjoint Courant Number mean: 0.00616889 max: 0.144753
GAMG:  Solving for cellDisplacementx, Initial residual = 0, Final residual = 0, No Iterations 0
GAMG:  Solving for cellDisplacementy, Initial residual = 0, Final residual = 0, No Iterations 0
GAMG:  Solving for cellDisplacementz, Initial residual = 0, Final residual = 0, No Iterations 0
PIMPLE: iteration 1
DILUPBiCG:  Solving for linUx, Initial residual = 0.0179643, Final residual = 4.6148e-05, No Iterations 1
DILUPBiCG:  Solving for linUy, Initial residual = 0.0196523, Final residual = 3.92556e-05, No Iterations 1
DILUPBiCG:  Solving for linUz, Initial residual = 0.0357234, Final residual = 7.62051e-05, No Iterations 1
GAMG:  Solving for linP, Initial residual = 1, Final residual = 0.00889659, No Iterations 5
GAMG:  Solving for linP, Initial residual = 0.111331, Final residual = 0.000849722, No Iterations 4
GAMG:  Solving for linP, Initial residual = 0.0480198, Final residual = 0.000321297, No Iterations 4
Adjoint continuity errors : sum local = 1.34486e-06, global = 4.08812e-07, cumulative = 4.08812e-07
GAMG:  Solving for linP, Initial residual = 0.0799747, Final residual = 0.000544007, No Iterations 6
GAMG:  Solving for linP, Initial residual = 0.0392889, Final residual = 0.000169425, No Iterations 5
GAMG:  Solving for linP, Initial residual = 0.0174582, Final residual = 7.95036e-05, No Iterations 5
Adjoint continuity errors : sum local = 2.96724e-07, global = -1.03478e-08, cumulative = 3.98464e-07
PIMPLE: iteration 2
DILUPBiCG:  Solving for linUx, Initial residual = 0.454474, Final residual = 0.00110199, No Iterations 1
DILUPBiCG:  Solving for linUy, Initial residual = 0.641637, Final residual = 0.00463698, No Iterations 1
DILUPBiCG:  Solving for linUz, Initial residual = 0.177925, Final residual = 0.000464883, No Iterations 1
GAMG:  Solving for linP, Initial residual = 0.23318, Final residual = 0.00078136, No Iterations 4
GAMG:  Solving for linP, Initial residual = 0.050755, Final residual = 0.000187555, No Iterations 4
GAMG:  Solving for linP, Initial residual = 0.0199877, Final residual = 7.27857e-05, No Iterations 4
Adjoint continuity errors : sum local = 2.03066e-07, global = 3.38063e-08, cumulative = 4.32271e-07
GAMG:  Solving for linP, Initial residual = 0.0268674, Final residual = 0.000231286, No Iterations 4
GAMG:  Solving for linP, Initial residual = 0.0104121, Final residual = 4.67145e-05, No Iterations 4
GAMG:  Solving for linP, Initial residual = 0.00451079, Final residual = 3.91271e-05, No Iterations 4
Adjoint continuity errors : sum local = 1.09586e-07, global = 2.15678e-09, cumulative = 4.34427e-07
PIMPLE: iteration 3
DILUPBiCG:  Solving for linUx, Initial residual = 0.0240371, Final residual = 7.64426e-06, No Iterations 2
DILUPBiCG:  Solving for linUy, Initial residual = 0.0233765, Final residual = 6.73981e-06, No Iterations 2
DILUPBiCG:  Solving for linUz, Initial residual = 0.0128496, Final residual = 3.39138e-06, No Iterations 2
GAMG:  Solving for linP, Initial residual = 0.0264789, Final residual = 0.000236236, No Iterations 3
GAMG:  Solving for linP, Initial residual = 0.00818658, Final residual = 4.57253e-05, No Iterations 4
GAMG:  Solving for linP, Initial residual = 0.00343939, Final residual = 2.61367e-05, No Iterations 4
Adjoint continuity errors : sum local = 7.97223e-08, global = 4.48653e-09, cumulative = 4.38914e-07
GAMG:  Solving for linP, Initial residual = 0.00330855, Final residual = 3.00778e-05, No Iterations 4
GAMG:  Solving for linP, Initial residual = 0.00154501, Final residual = 1.04228e-05, No Iterations 4
GAMG:  Solving for linP, Initial residual = 0.000642003, Final residual = 7.04189e-07, No Iterations 7
Adjoint continuity errors : sum local = 2.15055e-09, global = 4.8994e-10, cumulative = 4.39404e-07
ExecutionTime = 12.48 s  ClockTime = 12 s

End

