/*---------------------------------------------------------------------------*\
| =========                 |                                                 |
| \\      /  F ield         | OpenFOAM: The Open Source CFD Toolbox           |
|  \\    /   O peration     | Version:  2.3.1                                 |
|   \\  /    A nd           | Web:      www.OpenFOAM.org                      |
|    \\/     M anipulation  |                                                 |
\*---------------------------------------------------------------------------*/
Build  : 2.3.1-262087cdf8db
Exec   : pimpleDyMFoam
Date   : Jun 05 2023
Time   : 23:23:05
Host   : "jcosson-VirtualBox"
PID    : 3023
Case   : /home/jcosson/workspace/henersj_shootingdata/calcs/moderate_deformed/primal/100_intervals_05-06-23/sweep1/interval51
nProcs : 1
sigFpe : Enabling floating point exception trapping (FOAM_SIGFPE).
fileModificationChecking : Monitoring run-time modified files using timeStampMaster
allowSystemOperations : Allowing user-supplied system call operations

// * * * * * * * * * * * * * * * * * * * * * * * * * * * * * * * * * * * * * //
Create time

Create mesh for time = 0.45

Selecting dynamicFvMesh dynamicMotionSolverFvMesh
Selecting motion solver: displacementLaplacian
Selecting motion diffusion: quadratic
Selecting motion diffusion: quadratic
Selecting motion diffusion: inverseDistance

PIMPLE: no residual control data found. Calculations will employ 3 corrector loops

Reading field p

Reading field U

Reading/calculating face flux field phi

Selecting incompressible transport model Newtonian
Selecting turbulence model type RASModel
Selecting RAS turbulence model kOmegaSST
kOmegaSSTCoeffs
{
    alphaK1         0.85034;
    alphaK2         1;
    alphaOmega1     0.5;
    alphaOmega2     0.85616;
    gamma1          0.5532;
    gamma2          0.4403;
    beta1           0.075;
    beta2           0.0828;
    betaStar        0.09;
    a1              0.31;
    c1              10;
    Cmu             0.09;
    b1              1;
    F3              false;
}

Reading/calculating face velocity Uf

No finite volume options present

Courant Number mean: 0.281141 max: 0.646111

Starting time loop

Courant Number mean: 0.281141 max: 0.646111
Time = 0.451

GAMG:  Solving for cellDisplacementx, Initial residual = 0, Final residual = 0, No Iterations 0
GAMG:  Solving for cellDisplacementy, Initial residual = 0, Final residual = 0, No Iterations 0
GAMG:  Solving for cellDisplacementz, Initial residual = 0, Final residual = 0, No Iterations 0
PIMPLE: iteration 1
DILUPBiCG:  Solving for Ux, Initial residual = 0.00380989, Final residual = 3.8154e-05, No Iterations 1
DILUPBiCG:  Solving for Uy, Initial residual = 0.000826767, Final residual = 2.38781e-06, No Iterations 1
DILUPBiCG:  Solving for Uz, Initial residual = 0.0737836, Final residual = 0.0001813, No Iterations 1
GAMG:  Solving for p, Initial residual = 0.72978, Final residual = 0.00602268, No Iterations 14
GAMG:  Solving for p, Initial residual = 0.119741, Final residual = 0.00102089, No Iterations 4
GAMG:  Solving for p, Initial residual = 0.0441301, Final residual = 0.000424807, No Iterations 5
time step continuity errors : sum local = 3.0706e-06, global = -1.16007e-06, cumulative = -1.16007e-06
GAMG:  Solving for p, Initial residual = 0.18766, Final residual = 0.00144429, No Iterations 14
GAMG:  Solving for p, Initial residual = 0.0531826, Final residual = 0.000456522, No Iterations 4
GAMG:  Solving for p, Initial residual = 0.0191201, Final residual = 0.000171125, No Iterations 6
time step continuity errors : sum local = 1.18476e-06, global = 2.06333e-07, cumulative = -9.53739e-07
PIMPLE: iteration 2
DILUPBiCG:  Solving for Ux, Initial residual = 0.00477399, Final residual = 7.89773e-06, No Iterations 1
DILUPBiCG:  Solving for Uy, Initial residual = 0.00452732, Final residual = 2.36489e-05, No Iterations 1
DILUPBiCG:  Solving for Uz, Initial residual = 0.0438902, Final residual = 0.000144303, No Iterations 1
GAMG:  Solving for p, Initial residual = 0.179811, Final residual = 0.00162033, No Iterations 12
GAMG:  Solving for p, Initial residual = 0.0505319, Final residual = 0.00033805, No Iterations 6
GAMG:  Solving for p, Initial residual = 0.0185093, Final residual = 0.000156803, No Iterations 6
time step continuity errors : sum local = 9.93572e-07, global = 1.83394e-07, cumulative = -7.70344e-07
GAMG:  Solving for p, Initial residual = 0.0688927, Final residual = 0.000535365, No Iterations 12
GAMG:  Solving for p, Initial residual = 0.0232842, Final residual = 0.00022694, No Iterations 5
GAMG:  Solving for p, Initial residual = 0.00891195, Final residual = 8.29429e-05, No Iterations 7
time step continuity errors : sum local = 5.24001e-07, global = 9.29981e-08, cumulative = -6.77346e-07
PIMPLE: iteration 3
DILUPBiCG:  Solving for Ux, Initial residual = 0.00312421, Final residual = 9.63571e-06, No Iterations 1
DILUPBiCG:  Solving for Uy, Initial residual = 0.00322927, Final residual = 2.15516e-06, No Iterations 2
DILUPBiCG:  Solving for Uz, Initial residual = 0.0238788, Final residual = 3.08493e-06, No Iterations 2
GAMG:  Solving for p, Initial residual = 0.0360296, Final residual = 0.000339059, No Iterations 8
GAMG:  Solving for p, Initial residual = 0.0105519, Final residual = 9.43269e-05, No Iterations 8
GAMG:  Solving for p, Initial residual = 0.00385423, Final residual = 3.81378e-05, No Iterations 10
time step continuity errors : sum local = 2.50089e-07, global = 6.15507e-08, cumulative = -6.15796e-07
GAMG:  Solving for p, Initial residual = 0.00498843, Final residual = 3.32483e-05, No Iterations 9
GAMG:  Solving for p, Initial residual = 0.0026095, Final residual = 1.52577e-05, No Iterations 4
GAMG:  Solving for p, Initial residual = 0.000920014, Final residual = 8.59639e-07, No Iterations 8
time step continuity errors : sum local = 5.62298e-09, global = -1.28724e-09, cumulative = -6.17083e-07
DILUPBiCG:  Solving for omega, Initial residual = 0.00273255, Final residual = 3.76108e-06, No Iterations 1
DILUPBiCG:  Solving for k, Initial residual = 0.00610819, Final residual = 9.56871e-07, No Iterations 2
ExecutionTime = 15.99 s  ClockTime = 16 s

End

