/*---------------------------------------------------------------------------*\
| =========                 |                                                 |
| \\      /  F ield         | OpenFOAM: The Open Source CFD Toolbox           |
|  \\    /   O peration     | Version:  2.3.1                                 |
|   \\  /    A nd           | Web:      www.OpenFOAM.org                      |
|    \\/     M anipulation  |                                                 |
\*---------------------------------------------------------------------------*/
Build  : 2.3.1-262087cdf8db
Exec   : linearisedPimpleDyMFoam
Date   : Jun 05 2023
Time   : 18:06:42
Host   : "jcosson-VirtualBox"
PID    : 10372
Case   : /home/jcosson/workspace/henersj_shootingdata/calcs/moderate_deformed/primal/56_intervals_05-06-23/sweep6/interval47
nProcs : 1
sigFpe : Enabling floating point exception trapping (FOAM_SIGFPE).
fileModificationChecking : Monitoring run-time modified files using timeStampMaster
allowSystemOperations : Allowing user-supplied system call operations

// * * * * * * * * * * * * * * * * * * * * * * * * * * * * * * * * * * * * * //
Create time

Create mesh for time = 0.482

Selecting dynamicFvMesh dynamicMotionSolverFvMesh
Selecting motion solver: displacementLaplacian
Selecting motion diffusion: quadratic
Selecting motion diffusion: quadratic
Selecting motion diffusion: inverseDistance
Reading field linP

Reading field linU

starte createPhia.H

Reading/calculating face flux field linPhi

Adjungierte Interpolation durchgefuehrt

createPhia.H verlassen

setRefCell ausgefuehrt

No finite volume options present


PIMPLE: no residual control data found. Calculations will employ 3 corrector loops


Starting time loop

Time = 0.483

Reading field p

Reading field U

Read primal fluxes 

Reading primal face flux fields phi/meshPhi

Created primal fluxes 

Selecting incompressible transport model Newtonian
singlePhaseTransportModel gewaehlt 

Selecting turbulence model type RASModel
Selecting RAS turbulence model kOmegaSST
bounding k, min: 0 max: 0.000806526 average: 0.000166211
kOmegaSSTCoeffs
{
    alphaK1         0.85034;
    alphaK2         1;
    alphaOmega1     0.5;
    alphaOmega2     0.85616;
    gamma1          0.5532;
    gamma2          0.4403;
    beta1           0.075;
    beta2           0.0828;
    betaStar        0.09;
    a1              0.31;
    c1              10;
    Cmu             0.09;
    b1              1;
    F3              false;
}

autoPtr ausgefuehrt

Reading/calculating face velocity Uf

Init adjoint face velocity linUf

Courant Number mean: 0.14492 max: 0.322535
Adjoint Courant Number mean: 0.000195588 max: 0.00613375
GAMG:  Solving for cellDisplacementx, Initial residual = 0, Final residual = 0, No Iterations 0
GAMG:  Solving for cellDisplacementy, Initial residual = 0, Final residual = 0, No Iterations 0
GAMG:  Solving for cellDisplacementz, Initial residual = 0, Final residual = 0, No Iterations 0
PIMPLE: iteration 1
DILUPBiCG:  Solving for linUx, Initial residual = 0.0354656, Final residual = 7.06025e-05, No Iterations 1
DILUPBiCG:  Solving for linUy, Initial residual = 0.0649378, Final residual = 8.49761e-05, No Iterations 1
DILUPBiCG:  Solving for linUz, Initial residual = 0.0720518, Final residual = 0.000118802, No Iterations 1
GAMG:  Solving for linP, Initial residual = 1, Final residual = 0.00685636, No Iterations 3
GAMG:  Solving for linP, Initial residual = 0.0462014, Final residual = 0.000193098, No Iterations 5
GAMG:  Solving for linP, Initial residual = 0.0170777, Final residual = 7.64473e-05, No Iterations 4
Adjoint continuity errors : sum local = 1.80976e-08, global = -4.76703e-09, cumulative = -4.76703e-09
GAMG:  Solving for linP, Initial residual = 0.0269237, Final residual = 8.72407e-05, No Iterations 5
GAMG:  Solving for linP, Initial residual = 0.00906538, Final residual = 2.82161e-05, No Iterations 5
GAMG:  Solving for linP, Initial residual = 0.00319537, Final residual = 1.02153e-05, No Iterations 5
Adjoint continuity errors : sum local = 2.39577e-09, global = -2.38426e-10, cumulative = -5.00546e-09
PIMPLE: iteration 2
DILUPBiCG:  Solving for linUx, Initial residual = 0.0120821, Final residual = 0.000410271, No Iterations 1
DILUPBiCG:  Solving for linUy, Initial residual = 0.0213403, Final residual = 5.08141e-05, No Iterations 1
DILUPBiCG:  Solving for linUz, Initial residual = 0.0335107, Final residual = 0.000129, No Iterations 1
GAMG:  Solving for linP, Initial residual = 0.0362704, Final residual = 0.000144578, No Iterations 4
GAMG:  Solving for linP, Initial residual = 0.00709532, Final residual = 6.93937e-05, No Iterations 3
GAMG:  Solving for linP, Initial residual = 0.00226843, Final residual = 1.12246e-05, No Iterations 4
Adjoint continuity errors : sum local = 2.59878e-09, global = -2.24271e-10, cumulative = -5.22973e-09
GAMG:  Solving for linP, Initial residual = 0.0029077, Final residual = 2.59445e-05, No Iterations 4
GAMG:  Solving for linP, Initial residual = 0.0011821, Final residual = 6.07233e-06, No Iterations 4
GAMG:  Solving for linP, Initial residual = 0.000413404, Final residual = 2.85262e-06, No Iterations 4
Adjoint continuity errors : sum local = 6.61637e-10, global = -9.32706e-11, cumulative = -5.323e-09
PIMPLE: iteration 3
DILUPBiCG:  Solving for linUx, Initial residual = 0.00113828, Final residual = 9.54127e-07, No Iterations 2
DILUPBiCG:  Solving for linUy, Initial residual = 0.00128675, Final residual = 9.62158e-06, No Iterations 1
DILUPBiCG:  Solving for linUz, Initial residual = 0.00131275, Final residual = 7.15153e-06, No Iterations 1
GAMG:  Solving for linP, Initial residual = 0.0389244, Final residual = 0.000212937, No Iterations 3
GAMG:  Solving for linP, Initial residual = 0.00328527, Final residual = 2.59411e-05, No Iterations 4
GAMG:  Solving for linP, Initial residual = 0.00126171, Final residual = 1.07408e-05, No Iterations 6
Adjoint continuity errors : sum local = 2.56564e-09, global = 4.31842e-10, cumulative = -4.89116e-09
GAMG:  Solving for linP, Initial residual = 0.00125569, Final residual = 8.22218e-06, No Iterations 4
GAMG:  Solving for linP, Initial residual = 0.000350686, Final residual = 2.74746e-06, No Iterations 5
GAMG:  Solving for linP, Initial residual = 0.000146097, Final residual = 7.64468e-07, No Iterations 6
Adjoint continuity errors : sum local = 1.826e-10, global = 4.80813e-11, cumulative = -4.84308e-09
ExecutionTime = 11.89 s  ClockTime = 12 s

Time = 0.484

Reading field p

Reading field U

Read primal fluxes 

Reading primal face flux fields phi/meshPhi

Created primal fluxes 

Selecting incompressible transport model Newtonian
singlePhaseTransportModel gewaehlt 

Selecting turbulence model type RASModel
Selecting RAS turbulence model kOmegaSST
bounding k, min: 0 max: 0.000791166 average: 0.000165102
kOmegaSSTCoeffs
{
    alphaK1         0.85034;
    alphaK2         1;
    alphaOmega1     0.5;
    alphaOmega2     0.85616;
    gamma1          0.5532;
    gamma2          0.4403;
    beta1           0.075;
    beta2           0.0828;
    betaStar        0.09;
    a1              0.31;
    c1              10;
    Cmu             0.09;
    b1              1;
    F3              false;
}

autoPtr ausgefuehrt

Reading/calculating face velocity Uf

Init adjoint face velocity linUf

Courant Number mean: 0.140025 max: 0.312115
Adjoint Courant Number mean: 0.000131872 max: 0.00516569
GAMG:  Solving for cellDisplacementx, Initial residual = 0, Final residual = 0, No Iterations 0
GAMG:  Solving for cellDisplacementy, Initial residual = 0, Final residual = 0, No Iterations 0
GAMG:  Solving for cellDisplacementz, Initial residual = 0, Final residual = 0, No Iterations 0
PIMPLE: iteration 1
DILUPBiCG:  Solving for linUx, Initial residual = 0.0802272, Final residual = 0.00022454, No Iterations 1
DILUPBiCG:  Solving for linUy, Initial residual = 0.158239, Final residual = 0.000287627, No Iterations 1
DILUPBiCG:  Solving for linUz, Initial residual = 0.242045, Final residual = 0.000520245, No Iterations 1
GAMG:  Solving for linP, Initial residual = 0.296607, Final residual = 0.00295368, No Iterations 3
GAMG:  Solving for linP, Initial residual = 0.0341437, Final residual = 0.000265331, No Iterations 4
GAMG:  Solving for linP, Initial residual = 0.0107842, Final residual = 4.44164e-05, No Iterations 4
Adjoint continuity errors : sum local = 1.20511e-08, global = -3.45674e-09, cumulative = -8.29982e-09
GAMG:  Solving for linP, Initial residual = 0.0153636, Final residual = 7.26348e-05, No Iterations 5
GAMG:  Solving for linP, Initial residual = 0.00739123, Final residual = 4.45917e-05, No Iterations 4
GAMG:  Solving for linP, Initial residual = 0.0024566, Final residual = 1.79806e-05, No Iterations 4
Adjoint continuity errors : sum local = 4.88627e-09, global = -1.1374e-09, cumulative = -9.43722e-09
PIMPLE: iteration 2
DILUPBiCG:  Solving for linUx, Initial residual = 0.00679851, Final residual = 2.20689e-05, No Iterations 1
DILUPBiCG:  Solving for linUy, Initial residual = 0.00807098, Final residual = 2.87725e-05, No Iterations 1
DILUPBiCG:  Solving for linUz, Initial residual = 0.00816239, Final residual = 2.18978e-05, No Iterations 1
GAMG:  Solving for linP, Initial residual = 0.0150354, Final residual = 9.60935e-05, No Iterations 3
GAMG:  Solving for linP, Initial residual = 0.00150579, Final residual = 9.60187e-06, No Iterations 4
GAMG:  Solving for linP, Initial residual = 0.000488344, Final residual = 3.65837e-06, No Iterations 4
Adjoint continuity errors : sum local = 9.91915e-10, global = 1.78059e-10, cumulative = -9.25916e-09
GAMG:  Solving for linP, Initial residual = 0.000678774, Final residual = 4.44088e-06, No Iterations 4
GAMG:  Solving for linP, Initial residual = 0.000191952, Final residual = 1.04992e-06, No Iterations 4
GAMG:  Solving for linP, Initial residual = 6.87818e-05, Final residual = 8.98032e-07, No Iterations 3
Adjoint continuity errors : sum local = 2.4349e-10, global = 1.87504e-11, cumulative = -9.24041e-09
PIMPLE: iteration 3
DILUPBiCG:  Solving for linUx, Initial residual = 0.000517735, Final residual = 2.73666e-06, No Iterations 1
DILUPBiCG:  Solving for linUy, Initial residual = 0.000899324, Final residual = 3.11225e-06, No Iterations 1
DILUPBiCG:  Solving for linUz, Initial residual = 0.000891079, Final residual = 3.88985e-06, No Iterations 1
GAMG:  Solving for linP, Initial residual = 0.0441214, Final residual = 0.000148513, No Iterations 3
GAMG:  Solving for linP, Initial residual = 0.00152338, Final residual = 7.33029e-06, No Iterations 4
GAMG:  Solving for linP, Initial residual = 0.00053186, Final residual = 4.30921e-06, No Iterations 3
Adjoint continuity errors : sum local = 1.19224e-09, global = 2.3496e-10, cumulative = -9.00545e-09
GAMG:  Solving for linP, Initial residual = 0.000947593, Final residual = 7.54129e-06, No Iterations 3
GAMG:  Solving for linP, Initial residual = 0.000129097, Final residual = 1.09734e-06, No Iterations 3
GAMG:  Solving for linP, Initial residual = 4.58214e-05, Final residual = 7.72328e-07, No Iterations 3
Adjoint continuity errors : sum local = 2.13795e-10, global = -4.85314e-11, cumulative = -9.05398e-09
ExecutionTime = 18.48 s  ClockTime = 19 s

End

