/*---------------------------------------------------------------------------*\
| =========                 |                                                 |
| \\      /  F ield         | OpenFOAM: The Open Source CFD Toolbox           |
|  \\    /   O peration     | Version:  2.3.1                                 |
|   \\  /    A nd           | Web:      www.OpenFOAM.org                      |
|    \\/     M anipulation  |                                                 |
\*---------------------------------------------------------------------------*/
Build  : 2.3.1-262087cdf8db
Exec   : linearisedPimpleDyMFoam
Date   : Jun 05 2023
Time   : 18:05:55
Host   : "jcosson-VirtualBox"
PID    : 10343
Case   : /home/jcosson/workspace/henersj_shootingdata/calcs/moderate_deformed/primal/56_intervals_05-06-23/sweep6/interval20
nProcs : 1
sigFpe : Enabling floating point exception trapping (FOAM_SIGFPE).
fileModificationChecking : Monitoring run-time modified files using timeStampMaster
allowSystemOperations : Allowing user-supplied system call operations

// * * * * * * * * * * * * * * * * * * * * * * * * * * * * * * * * * * * * * //
Create time

Create mesh for time = 0.434

Selecting dynamicFvMesh dynamicMotionSolverFvMesh
Selecting motion solver: displacementLaplacian
Selecting motion diffusion: quadratic
Selecting motion diffusion: quadratic
Selecting motion diffusion: inverseDistance
Reading field linP

Reading field linU

starte createPhia.H

Reading/calculating face flux field linPhi

Adjungierte Interpolation durchgefuehrt

createPhia.H verlassen

setRefCell ausgefuehrt

No finite volume options present


PIMPLE: no residual control data found. Calculations will employ 3 corrector loops


Starting time loop

Time = 0.435

Reading field p

Reading field U

Read primal fluxes 

Reading primal face flux fields phi/meshPhi

Created primal fluxes 

Selecting incompressible transport model Newtonian
singlePhaseTransportModel gewaehlt 

Selecting turbulence model type RASModel
Selecting RAS turbulence model kOmegaSST
kOmegaSSTCoeffs
{
    alphaK1         0.85034;
    alphaK2         1;
    alphaOmega1     0.5;
    alphaOmega2     0.85616;
    gamma1          0.5532;
    gamma2          0.4403;
    beta1           0.075;
    beta2           0.0828;
    betaStar        0.09;
    a1              0.31;
    c1              10;
    Cmu             0.09;
    b1              1;
    F3              false;
}

autoPtr ausgefuehrt

Reading/calculating face velocity Uf

Init adjoint face velocity linUf

Courant Number mean: 0.241608 max: 0.532327
Adjoint Courant Number mean: 0.000195588 max: 0.00613375
GAMG:  Solving for cellDisplacementx, Initial residual = 0, Final residual = 0, No Iterations 0
GAMG:  Solving for cellDisplacementy, Initial residual = 0, Final residual = 0, No Iterations 0
GAMG:  Solving for cellDisplacementz, Initial residual = 0, Final residual = 0, No Iterations 0
PIMPLE: iteration 1
DILUPBiCG:  Solving for linUx, Initial residual = 0.0650501, Final residual = 0.00014893, No Iterations 1
DILUPBiCG:  Solving for linUy, Initial residual = 0.1269, Final residual = 0.000207037, No Iterations 1
DILUPBiCG:  Solving for linUz, Initial residual = 0.138997, Final residual = 0.000274124, No Iterations 1
GAMG:  Solving for linP, Initial residual = 1, Final residual = 0.00386858, No Iterations 3
GAMG:  Solving for linP, Initial residual = 0.0245547, Final residual = 0.000234826, No Iterations 4
GAMG:  Solving for linP, Initial residual = 0.00810272, Final residual = 5.08254e-05, No Iterations 4
Adjoint continuity errors : sum local = 2.47436e-08, global = -4.28339e-09, cumulative = -4.28339e-09
GAMG:  Solving for linP, Initial residual = 0.0362749, Final residual = 0.000317914, No Iterations 3
GAMG:  Solving for linP, Initial residual = 0.00617256, Final residual = 4.86595e-05, No Iterations 4
GAMG:  Solving for linP, Initial residual = 0.00218004, Final residual = 2.17468e-05, No Iterations 4
Adjoint continuity errors : sum local = 1.02574e-08, global = 3.72497e-09, cumulative = -5.58419e-10
PIMPLE: iteration 2
DILUPBiCG:  Solving for linUx, Initial residual = 0.0180948, Final residual = 6.90441e-05, No Iterations 1
DILUPBiCG:  Solving for linUy, Initial residual = 0.0310242, Final residual = 6.75892e-05, No Iterations 1
DILUPBiCG:  Solving for linUz, Initial residual = 0.0415346, Final residual = 0.00010806, No Iterations 1
GAMG:  Solving for linP, Initial residual = 0.0501665, Final residual = 0.000239603, No Iterations 3
GAMG:  Solving for linP, Initial residual = 0.00416415, Final residual = 3.13056e-05, No Iterations 4
GAMG:  Solving for linP, Initial residual = 0.00125882, Final residual = 5.44327e-06, No Iterations 4
Adjoint continuity errors : sum local = 2.59829e-09, global = -3.12323e-10, cumulative = -8.70743e-10
GAMG:  Solving for linP, Initial residual = 0.00377439, Final residual = 2.00858e-05, No Iterations 4
GAMG:  Solving for linP, Initial residual = 0.00085459, Final residual = 8.35977e-06, No Iterations 3
GAMG:  Solving for linP, Initial residual = 0.000274326, Final residual = 1.73747e-06, No Iterations 4
Adjoint continuity errors : sum local = 8.30074e-10, global = 1.12619e-10, cumulative = -7.58123e-10
PIMPLE: iteration 3
DILUPBiCG:  Solving for linUx, Initial residual = 0.00255818, Final residual = 2.13809e-07, No Iterations 2
DILUPBiCG:  Solving for linUy, Initial residual = 0.00409793, Final residual = 1.14389e-07, No Iterations 2
DILUPBiCG:  Solving for linUz, Initial residual = 0.00374721, Final residual = 2.82433e-07, No Iterations 2
GAMG:  Solving for linP, Initial residual = 0.0417867, Final residual = 0.000382062, No Iterations 2
GAMG:  Solving for linP, Initial residual = 0.00177756, Final residual = 1.11452e-05, No Iterations 5
GAMG:  Solving for linP, Initial residual = 0.000839738, Final residual = 6.79977e-06, No Iterations 6
Adjoint continuity errors : sum local = 3.33219e-09, global = 5.31225e-10, cumulative = -2.26899e-10
GAMG:  Solving for linP, Initial residual = 0.00209904, Final residual = 1.25264e-05, No Iterations 3
GAMG:  Solving for linP, Initial residual = 0.000234661, Final residual = 1.82638e-06, No Iterations 4
GAMG:  Solving for linP, Initial residual = 8.57648e-05, Final residual = 8.27961e-07, No Iterations 4
Adjoint continuity errors : sum local = 4.06529e-10, global = -1.6381e-10, cumulative = -3.90709e-10
ExecutionTime = 13.02 s  ClockTime = 14 s

Time = 0.436

Reading field p

Reading field U

Read primal fluxes 

Reading primal face flux fields phi/meshPhi

Created primal fluxes 

Selecting incompressible transport model Newtonian
singlePhaseTransportModel gewaehlt 

Selecting turbulence model type RASModel
Selecting RAS turbulence model kOmegaSST
kOmegaSSTCoeffs
{
    alphaK1         0.85034;
    alphaK2         1;
    alphaOmega1     0.5;
    alphaOmega2     0.85616;
    gamma1          0.5532;
    gamma2          0.4403;
    beta1           0.075;
    beta2           0.0828;
    betaStar        0.09;
    a1              0.31;
    c1              10;
    Cmu             0.09;
    b1              1;
    F3              false;
}

autoPtr ausgefuehrt

Reading/calculating face velocity Uf

Init adjoint face velocity linUf

Courant Number mean: 0.246203 max: 0.54256
Adjoint Courant Number mean: 0.000135152 max: 0.0174975
GAMG:  Solving for cellDisplacementx, Initial residual = 0, Final residual = 0, No Iterations 0
GAMG:  Solving for cellDisplacementy, Initial residual = 0, Final residual = 0, No Iterations 0
GAMG:  Solving for cellDisplacementz, Initial residual = 0, Final residual = 0, No Iterations 0
PIMPLE: iteration 1
DILUPBiCG:  Solving for linUx, Initial residual = 0.103879, Final residual = 0.000323953, No Iterations 1
DILUPBiCG:  Solving for linUy, Initial residual = 0.186089, Final residual = 0.0004163, No Iterations 1
DILUPBiCG:  Solving for linUz, Initial residual = 0.261138, Final residual = 0.000617286, No Iterations 1
GAMG:  Solving for linP, Initial residual = 0.302183, Final residual = 0.00147972, No Iterations 3
GAMG:  Solving for linP, Initial residual = 0.0138599, Final residual = 8.6301e-05, No Iterations 4
GAMG:  Solving for linP, Initial residual = 0.00406942, Final residual = 1.82426e-05, No Iterations 4
Adjoint continuity errors : sum local = 1.27828e-08, global = -2.74279e-09, cumulative = -3.1335e-09
GAMG:  Solving for linP, Initial residual = 0.0146671, Final residual = 0.000100981, No Iterations 4
GAMG:  Solving for linP, Initial residual = 0.00372433, Final residual = 2.0872e-05, No Iterations 4
GAMG:  Solving for linP, Initial residual = 0.00120486, Final residual = 4.79512e-06, No Iterations 4
Adjoint continuity errors : sum local = 3.33e-09, global = -9.77739e-10, cumulative = -4.11124e-09
PIMPLE: iteration 2
DILUPBiCG:  Solving for linUx, Initial residual = 0.0112209, Final residual = 2.88494e-05, No Iterations 1
DILUPBiCG:  Solving for linUy, Initial residual = 0.0170772, Final residual = 3.87154e-05, No Iterations 1
DILUPBiCG:  Solving for linUz, Initial residual = 0.0169674, Final residual = 3.84111e-05, No Iterations 1
GAMG:  Solving for linP, Initial residual = 0.0249107, Final residual = 7.6122e-05, No Iterations 3
GAMG:  Solving for linP, Initial residual = 0.00100968, Final residual = 1.00691e-05, No Iterations 3
GAMG:  Solving for linP, Initial residual = 0.000270947, Final residual = 2.08654e-06, No Iterations 8
Adjoint continuity errors : sum local = 1.45693e-09, global = 2.66332e-10, cumulative = -3.8449e-09
GAMG:  Solving for linP, Initial residual = 0.00148915, Final residual = 9.56479e-06, No Iterations 3
GAMG:  Solving for linP, Initial residual = 0.000171871, Final residual = 8.16784e-07, No Iterations 4
GAMG:  Solving for linP, Initial residual = 4.78209e-05, Final residual = 6.64386e-07, No Iterations 3
Adjoint continuity errors : sum local = 4.639e-10, global = -5.40157e-11, cumulative = -3.89892e-09
PIMPLE: iteration 3
DILUPBiCG:  Solving for linUx, Initial residual = 0.00173483, Final residual = 5.30222e-08, No Iterations 2
DILUPBiCG:  Solving for linUy, Initial residual = 0.00310888, Final residual = 1.44009e-07, No Iterations 2
DILUPBiCG:  Solving for linUz, Initial residual = 0.0028496, Final residual = 5.52443e-07, No Iterations 2
GAMG:  Solving for linP, Initial residual = 0.0447672, Final residual = 0.000136919, No Iterations 3
GAMG:  Solving for linP, Initial residual = 0.000860305, Final residual = 5.04359e-06, No Iterations 4
GAMG:  Solving for linP, Initial residual = 0.000247744, Final residual = 1.33955e-06, No Iterations 4
Adjoint continuity errors : sum local = 9.5277e-10, global = -7.46718e-11, cumulative = -3.97359e-09
GAMG:  Solving for linP, Initial residual = 0.00189791, Final residual = 1.82399e-05, No Iterations 2
GAMG:  Solving for linP, Initial residual = 9.92889e-05, Final residual = 7.54135e-07, No Iterations 4
GAMG:  Solving for linP, Initial residual = 3.77113e-05, Final residual = 3.96933e-07, No Iterations 3
Adjoint continuity errors : sum local = 2.82938e-10, global = 1.08095e-11, cumulative = -3.96278e-09
ExecutionTime = 24.17 s  ClockTime = 25 s

End

