/*---------------------------------------------------------------------------*\
| =========                 |                                                 |
| \\      /  F ield         | OpenFOAM: The Open Source CFD Toolbox           |
|  \\    /   O peration     | Version:  2.3.1                                 |
|   \\  /    A nd           | Web:      www.OpenFOAM.org                      |
|    \\/     M anipulation  |                                                 |
\*---------------------------------------------------------------------------*/
Build  : 2.3.1-262087cdf8db
Exec   : pimpleDyMFoam
Date   : Jun 06 2023
Time   : 00:07:59
Host   : "jcosson-VirtualBox"
PID    : 25329
Case   : /home/jcosson/workspace/henersj_shootingdata/calcs/moderate_deformed/primal/100_intervals_05-06-23/sweep12/interval79
nProcs : 1
sigFpe : Enabling floating point exception trapping (FOAM_SIGFPE).
fileModificationChecking : Monitoring run-time modified files using timeStampMaster
allowSystemOperations : Allowing user-supplied system call operations

// * * * * * * * * * * * * * * * * * * * * * * * * * * * * * * * * * * * * * //
Create time

Create mesh for time = 0.478

Selecting dynamicFvMesh dynamicMotionSolverFvMesh
Selecting motion solver: displacementLaplacian
Selecting motion diffusion: quadratic
Selecting motion diffusion: quadratic
Selecting motion diffusion: inverseDistance

PIMPLE: no residual control data found. Calculations will employ 3 corrector loops

Reading field p

Reading field U

Reading/calculating face flux field phi

Selecting incompressible transport model Newtonian
Selecting turbulence model type RASModel
Selecting RAS turbulence model kOmegaSST
bounding k, min: 0 max: 0.000819973 average: 0.000170652
kOmegaSSTCoeffs
{
    alphaK1         0.85034;
    alphaK2         1;
    alphaOmega1     0.5;
    alphaOmega2     0.85616;
    gamma1          0.5532;
    gamma2          0.4403;
    beta1           0.075;
    beta2           0.0828;
    betaStar        0.09;
    a1              0.31;
    c1              10;
    Cmu             0.09;
    b1              1;
    F3              false;
}

Reading/calculating face velocity Uf

No finite volume options present

Courant Number mean: 0.171793 max: 0.383454

Starting time loop

Courant Number mean: 0.171793 max: 0.383454
Time = 0.479

GAMG:  Solving for cellDisplacementx, Initial residual = 0, Final residual = 0, No Iterations 0
GAMG:  Solving for cellDisplacementy, Initial residual = 0, Final residual = 0, No Iterations 0
GAMG:  Solving for cellDisplacementz, Initial residual = 0, Final residual = 0, No Iterations 0
PIMPLE: iteration 1
DILUPBiCG:  Solving for Ux, Initial residual = 0.0622539, Final residual = 0.000244989, No Iterations 1
DILUPBiCG:  Solving for Uy, Initial residual = 0.0109668, Final residual = 2.4684e-05, No Iterations 1
DILUPBiCG:  Solving for Uz, Initial residual = 0.0201721, Final residual = 3.51998e-05, No Iterations 1
GAMG:  Solving for p, Initial residual = 0.125201, Final residual = 0.000884435, No Iterations 6
GAMG:  Solving for p, Initial residual = 0.0154055, Final residual = 0.000143406, No Iterations 18
GAMG:  Solving for p, Initial residual = 0.00697208, Final residual = 6.74705e-05, No Iterations 10
time step continuity errors : sum local = 1.0196e-06, global = 2.66253e-07, cumulative = 2.66253e-07
GAMG:  Solving for p, Initial residual = 0.053897, Final residual = 0.0004933, No Iterations 4
GAMG:  Solving for p, Initial residual = 0.00772869, Final residual = 7.37017e-05, No Iterations 18
GAMG:  Solving for p, Initial residual = 0.00367039, Final residual = 3.50473e-05, No Iterations 10
time step continuity errors : sum local = 5.31578e-07, global = 1.38229e-07, cumulative = 4.04481e-07
PIMPLE: iteration 2
DILUPBiCG:  Solving for Ux, Initial residual = 0.0173718, Final residual = 0.000103824, No Iterations 1
DILUPBiCG:  Solving for Uy, Initial residual = 0.003191, Final residual = 7.1016e-06, No Iterations 1
DILUPBiCG:  Solving for Uz, Initial residual = 0.00372095, Final residual = 1.30302e-05, No Iterations 1
GAMG:  Solving for p, Initial residual = 0.0537458, Final residual = 0.000487877, No Iterations 4
GAMG:  Solving for p, Initial residual = 0.00930981, Final residual = 9.05538e-05, No Iterations 16
GAMG:  Solving for p, Initial residual = 0.0042969, Final residual = 4.16492e-05, No Iterations 8
time step continuity errors : sum local = 5.42669e-07, global = -1.73381e-07, cumulative = 2.31101e-07
GAMG:  Solving for p, Initial residual = 0.0277285, Final residual = 0.000218159, No Iterations 4
GAMG:  Solving for p, Initial residual = 0.0046799, Final residual = 4.34435e-05, No Iterations 14
GAMG:  Solving for p, Initial residual = 0.00204708, Final residual = 2.02164e-05, No Iterations 8
time step continuity errors : sum local = 2.64778e-07, global = -7.70658e-08, cumulative = 1.54035e-07
PIMPLE: iteration 3
DILUPBiCG:  Solving for Ux, Initial residual = 0.00410861, Final residual = 2.76547e-06, No Iterations 2
DILUPBiCG:  Solving for Uy, Initial residual = 0.000767521, Final residual = 5.75691e-06, No Iterations 1
DILUPBiCG:  Solving for Uz, Initial residual = 0.00884622, Final residual = 3.5418e-06, No Iterations 2
GAMG:  Solving for p, Initial residual = 0.0406179, Final residual = 0.000350659, No Iterations 5
GAMG:  Solving for p, Initial residual = 0.00929028, Final residual = 7.3936e-05, No Iterations 9
GAMG:  Solving for p, Initial residual = 0.0043341, Final residual = 4.23216e-05, No Iterations 4
time step continuity errors : sum local = 6.20135e-07, global = -2.03144e-07, cumulative = -4.91093e-08
GAMG:  Solving for p, Initial residual = 0.0023478, Final residual = 2.26547e-05, No Iterations 14
GAMG:  Solving for p, Initial residual = 0.00125972, Final residual = 1.18662e-05, No Iterations 4
GAMG:  Solving for p, Initial residual = 0.000523806, Final residual = 9.33409e-07, No Iterations 28
time step continuity errors : sum local = 1.36025e-08, global = 4.08118e-09, cumulative = -4.50281e-08
DILUPBiCG:  Solving for omega, Initial residual = 0.00101997, Final residual = 9.88456e-07, No Iterations 1
DILUPBiCG:  Solving for k, Initial residual = 0.0043446, Final residual = 1.1384e-06, No Iterations 2
bounding k, min: 0 max: 0.000808579 average: 0.000169499
ExecutionTime = 16.04 s  ClockTime = 16 s

End

