/*---------------------------------------------------------------------------*\
| =========                 |                                                 |
| \\      /  F ield         | OpenFOAM: The Open Source CFD Toolbox           |
|  \\    /   O peration     | Version:  2.3.1                                 |
|   \\  /    A nd           | Web:      www.OpenFOAM.org                      |
|    \\/     M anipulation  |                                                 |
\*---------------------------------------------------------------------------*/
Build  : 2.3.1-262087cdf8db
Exec   : linearisedPimpleDyMFoam
Date   : Jun 05 2023
Time   : 18:55:51
Host   : "jcosson-VirtualBox"
PID    : 27094
Case   : /home/jcosson/workspace/henersj_shootingdata/calcs/moderate_deformed/primal/56_intervals_05-06-23/sweep24/interval51
nProcs : 1
sigFpe : Enabling floating point exception trapping (FOAM_SIGFPE).
fileModificationChecking : Monitoring run-time modified files using timeStampMaster
allowSystemOperations : Allowing user-supplied system call operations

// * * * * * * * * * * * * * * * * * * * * * * * * * * * * * * * * * * * * * //
Create time

Create mesh for time = 0.489

Selecting dynamicFvMesh dynamicMotionSolverFvMesh
Selecting motion solver: displacementLaplacian
Selecting motion diffusion: quadratic
Selecting motion diffusion: quadratic
Selecting motion diffusion: inverseDistance
Reading field linP

Reading field linU

starte createPhia.H

Reading/calculating face flux field linPhi

Adjungierte Interpolation durchgefuehrt

createPhia.H verlassen

setRefCell ausgefuehrt

No finite volume options present


PIMPLE: no residual control data found. Calculations will employ 3 corrector loops


Starting time loop

Time = 0.49

Reading field p

Reading field U

Read primal fluxes 

Reading primal face flux fields phi/meshPhi

Created primal fluxes 

Selecting incompressible transport model Newtonian
singlePhaseTransportModel gewaehlt 

Selecting turbulence model type RASModel
Selecting RAS turbulence model kOmegaSST
bounding k, min: 0 max: 0.000619527 average: 0.000152596
kOmegaSSTCoeffs
{
    alphaK1         0.85034;
    alphaK2         1;
    alphaOmega1     0.5;
    alphaOmega2     0.85616;
    gamma1          0.5532;
    gamma2          0.4403;
    beta1           0.075;
    beta2           0.0828;
    betaStar        0.09;
    a1              0.31;
    c1              10;
    Cmu             0.09;
    b1              1;
    F3              false;
}

autoPtr ausgefuehrt

Reading/calculating face velocity Uf

Init adjoint face velocity linUf

Courant Number mean: 0.11606 max: 0.264607
Adjoint Courant Number mean: 0.000269246 max: 0.00297555
GAMG:  Solving for cellDisplacementx, Initial residual = 0, Final residual = 0, No Iterations 0
GAMG:  Solving for cellDisplacementy, Initial residual = 0, Final residual = 0, No Iterations 0
GAMG:  Solving for cellDisplacementz, Initial residual = 0, Final residual = 0, No Iterations 0
PIMPLE: iteration 1
DILUPBiCG:  Solving for linUx, Initial residual = 0.0169988, Final residual = 5.66492e-05, No Iterations 1
DILUPBiCG:  Solving for linUy, Initial residual = 0.0322664, Final residual = 7.66836e-05, No Iterations 1
DILUPBiCG:  Solving for linUz, Initial residual = 0.0612841, Final residual = 0.000124125, No Iterations 1
GAMG:  Solving for linP, Initial residual = 1, Final residual = 0.00339309, No Iterations 3
GAMG:  Solving for linP, Initial residual = 0.0206609, Final residual = 0.000140118, No Iterations 4
GAMG:  Solving for linP, Initial residual = 0.0061175, Final residual = 4.40931e-05, No Iterations 4
Adjoint continuity errors : sum local = 5.86071e-09, global = 3.32109e-10, cumulative = 3.32109e-10
GAMG:  Solving for linP, Initial residual = 0.0211677, Final residual = 8.16527e-05, No Iterations 4
GAMG:  Solving for linP, Initial residual = 0.00399369, Final residual = 2.56306e-05, No Iterations 4
GAMG:  Solving for linP, Initial residual = 0.00142054, Final residual = 1.39089e-05, No Iterations 4
Adjoint continuity errors : sum local = 1.80652e-09, global = 1.00053e-10, cumulative = 4.32162e-10
PIMPLE: iteration 2
DILUPBiCG:  Solving for linUx, Initial residual = 0.00141458, Final residual = 1.09687e-05, No Iterations 1
DILUPBiCG:  Solving for linUy, Initial residual = 0.00272261, Final residual = 5.72236e-05, No Iterations 1
DILUPBiCG:  Solving for linUz, Initial residual = 0.00436259, Final residual = 1.04057e-05, No Iterations 1
GAMG:  Solving for linP, Initial residual = 0.0277193, Final residual = 9.35798e-05, No Iterations 3
GAMG:  Solving for linP, Initial residual = 0.00197709, Final residual = 9.20864e-06, No Iterations 4
GAMG:  Solving for linP, Initial residual = 0.000562338, Final residual = 3.11692e-06, No Iterations 4
Adjoint continuity errors : sum local = 4.1788e-10, global = 2.13469e-11, cumulative = 4.53509e-10
GAMG:  Solving for linP, Initial residual = 0.000960564, Final residual = 7.95965e-06, No Iterations 3
GAMG:  Solving for linP, Initial residual = 0.00024637, Final residual = 9.50786e-07, No Iterations 4
GAMG:  Solving for linP, Initial residual = 8.1084e-05, Final residual = 3.91625e-07, No Iterations 4
Adjoint continuity errors : sum local = 5.24769e-11, global = -5.98376e-12, cumulative = 4.47526e-10
PIMPLE: iteration 3
DILUPBiCG:  Solving for linUx, Initial residual = 0.000168028, Final residual = 1.53103e-06, No Iterations 1
DILUPBiCG:  Solving for linUy, Initial residual = 0.000293641, Final residual = 4.93436e-06, No Iterations 1
DILUPBiCG:  Solving for linUz, Initial residual = 0.000432219, Final residual = 2.77684e-06, No Iterations 1
GAMG:  Solving for linP, Initial residual = 0.0375094, Final residual = 0.000285636, No Iterations 2
GAMG:  Solving for linP, Initial residual = 0.00157129, Final residual = 8.71774e-06, No Iterations 4
GAMG:  Solving for linP, Initial residual = 0.000561369, Final residual = 3.30036e-06, No Iterations 4
Adjoint continuity errors : sum local = 4.59502e-10, global = -1.03937e-10, cumulative = 3.43588e-10
GAMG:  Solving for linP, Initial residual = 0.00105674, Final residual = 6.23014e-06, No Iterations 3
GAMG:  Solving for linP, Initial residual = 0.000155368, Final residual = 1.53644e-06, No Iterations 4
GAMG:  Solving for linP, Initial residual = 6.40022e-05, Final residual = 7.14036e-07, No Iterations 4
Adjoint continuity errors : sum local = 9.95483e-11, global = -2.44184e-11, cumulative = 3.1917e-10
ExecutionTime = 11.56 s  ClockTime = 12 s

Time = 0.491

Reading field p

Reading field U

Read primal fluxes 

Reading primal face flux fields phi/meshPhi

Created primal fluxes 

Selecting incompressible transport model Newtonian
singlePhaseTransportModel gewaehlt 

Selecting turbulence model type RASModel
Selecting RAS turbulence model kOmegaSST
bounding k, min: 0 max: 0.000603348 average: 0.00015172
kOmegaSSTCoeffs
{
    alphaK1         0.85034;
    alphaK2         1;
    alphaOmega1     0.5;
    alphaOmega2     0.85616;
    gamma1          0.5532;
    gamma2          0.4403;
    beta1           0.075;
    beta2           0.0828;
    betaStar        0.09;
    a1              0.31;
    c1              10;
    Cmu             0.09;
    b1              1;
    F3              false;
}

autoPtr ausgefuehrt

Reading/calculating face velocity Uf

Init adjoint face velocity linUf

Courant Number mean: 0.112875 max: 0.257796
Adjoint Courant Number mean: 0.000266831 max: 0.00293511
GAMG:  Solving for cellDisplacementx, Initial residual = 0, Final residual = 0, No Iterations 0
GAMG:  Solving for cellDisplacementy, Initial residual = 0, Final residual = 0, No Iterations 0
GAMG:  Solving for cellDisplacementz, Initial residual = 0, Final residual = 0, No Iterations 0
PIMPLE: iteration 1
DILUPBiCG:  Solving for linUx, Initial residual = 0.0115632, Final residual = 3.77351e-05, No Iterations 1
DILUPBiCG:  Solving for linUy, Initial residual = 0.0232213, Final residual = 5.95198e-05, No Iterations 1
DILUPBiCG:  Solving for linUz, Initial residual = 0.0363035, Final residual = 5.54692e-05, No Iterations 1
GAMG:  Solving for linP, Initial residual = 0.27206, Final residual = 0.00218613, No Iterations 2
GAMG:  Solving for linP, Initial residual = 0.00776233, Final residual = 4.29505e-05, No Iterations 4
GAMG:  Solving for linP, Initial residual = 0.00234086, Final residual = 9.70714e-06, No Iterations 4
Adjoint continuity errors : sum local = 1.86738e-09, global = -2.65051e-10, cumulative = 5.41187e-11
GAMG:  Solving for linP, Initial residual = 0.00556125, Final residual = 3.93255e-05, No Iterations 3
GAMG:  Solving for linP, Initial residual = 0.000943656, Final residual = 5.97592e-06, No Iterations 4
GAMG:  Solving for linP, Initial residual = 0.000295884, Final residual = 2.58375e-06, No Iterations 3
Adjoint continuity errors : sum local = 4.94248e-10, global = 3.76515e-12, cumulative = 5.78838e-11
PIMPLE: iteration 2
DILUPBiCG:  Solving for linUx, Initial residual = 0.00118808, Final residual = 8.6323e-06, No Iterations 1
DILUPBiCG:  Solving for linUy, Initial residual = 0.00217146, Final residual = 0.000170198, No Iterations 1
DILUPBiCG:  Solving for linUz, Initial residual = 0.00319592, Final residual = 7.26259e-06, No Iterations 1
GAMG:  Solving for linP, Initial residual = 0.012582, Final residual = 5.91093e-05, No Iterations 3
GAMG:  Solving for linP, Initial residual = 0.000790819, Final residual = 4.72307e-06, No Iterations 4
GAMG:  Solving for linP, Initial residual = 0.000261605, Final residual = 1.2895e-06, No Iterations 4
Adjoint continuity errors : sum local = 2.49625e-10, global = -5.22489e-11, cumulative = 5.63492e-12
GAMG:  Solving for linP, Initial residual = 0.000385621, Final residual = 3.58961e-06, No Iterations 3
GAMG:  Solving for linP, Initial residual = 9.77203e-05, Final residual = 9.48921e-07, No Iterations 4
GAMG:  Solving for linP, Initial residual = 3.55316e-05, Final residual = 3.27946e-07, No Iterations 3
Adjoint continuity errors : sum local = 6.34816e-11, global = 7.45355e-13, cumulative = 6.38027e-12
PIMPLE: iteration 3
DILUPBiCG:  Solving for linUx, Initial residual = 0.000153567, Final residual = 1.35304e-06, No Iterations 1
DILUPBiCG:  Solving for linUy, Initial residual = 0.000269384, Final residual = 3.74397e-06, No Iterations 1
DILUPBiCG:  Solving for linUz, Initial residual = 0.000390408, Final residual = 2.03607e-06, No Iterations 1
GAMG:  Solving for linP, Initial residual = 0.042157, Final residual = 0.000402286, No Iterations 2
GAMG:  Solving for linP, Initial residual = 0.00139835, Final residual = 1.09061e-05, No Iterations 4
GAMG:  Solving for linP, Initial residual = 0.000483325, Final residual = 4.30173e-06, No Iterations 4
Adjoint continuity errors : sum local = 8.57317e-10, global = -2.36123e-10, cumulative = -2.29743e-10
GAMG:  Solving for linP, Initial residual = 0.000956273, Final residual = 8.5737e-06, No Iterations 3
GAMG:  Solving for linP, Initial residual = 0.00014054, Final residual = 1.21911e-06, No Iterations 5
GAMG:  Solving for linP, Initial residual = 5.47056e-05, Final residual = 4.77518e-07, No Iterations 4
Adjoint continuity errors : sum local = 9.52876e-11, global = -3.36829e-11, cumulative = -2.63426e-10
ExecutionTime = 18.72 s  ClockTime = 20 s

End

