/*---------------------------------------------------------------------------*\
| =========                 |                                                 |
| \\      /  F ield         | OpenFOAM: The Open Source CFD Toolbox           |
|  \\    /   O peration     | Version:  2.3.1                                 |
|   \\  /    A nd           | Web:      www.OpenFOAM.org                      |
|    \\/     M anipulation  |                                                 |
\*---------------------------------------------------------------------------*/
Build  : 2.3.1-262087cdf8db
Exec   : linearisedPimpleDyMFoam
Date   : Jun 06 2023
Time   : 01:37:00
Host   : "jcosson-VirtualBox"
PID    : 6243
Case   : /home/jcosson/workspace/henersj_shootingdata/calcs/moderate_deformed/primal/100_intervals_05-06-23/sweep39/interval95
nProcs : 1
sigFpe : Enabling floating point exception trapping (FOAM_SIGFPE).
fileModificationChecking : Monitoring run-time modified files using timeStampMaster
allowSystemOperations : Allowing user-supplied system call operations

// * * * * * * * * * * * * * * * * * * * * * * * * * * * * * * * * * * * * * //
Create time

Create mesh for time = 0.494

Selecting dynamicFvMesh dynamicMotionSolverFvMesh
Selecting motion solver: displacementLaplacian
Selecting motion diffusion: quadratic
Selecting motion diffusion: quadratic
Selecting motion diffusion: inverseDistance
Reading field linP

Reading field linU

starte createPhia.H

Reading/calculating face flux field linPhi

Adjungierte Interpolation durchgefuehrt

createPhia.H verlassen

setRefCell ausgefuehrt

No finite volume options present


PIMPLE: no residual control data found. Calculations will employ 3 corrector loops


Starting time loop

Time = 0.495

Reading field p

Reading field U

Read primal fluxes 

Reading primal face flux fields phi/meshPhi

Created primal fluxes 

Selecting incompressible transport model Newtonian
singlePhaseTransportModel gewaehlt 

Selecting turbulence model type RASModel
Selecting RAS turbulence model kOmegaSST
bounding k, min: 0 max: 0.000563815 average: 0.00015001
kOmegaSSTCoeffs
{
    alphaK1         0.85034;
    alphaK2         1;
    alphaOmega1     0.5;
    alphaOmega2     0.85616;
    gamma1          0.5532;
    gamma2          0.4403;
    beta1           0.075;
    beta2           0.0828;
    betaStar        0.09;
    a1              0.31;
    c1              10;
    Cmu             0.09;
    b1              1;
    F3              false;
}

autoPtr ausgefuehrt

Reading/calculating face velocity Uf

Init adjoint face velocity linUf

Courant Number mean: 0.103159 max: 0.237902
Adjoint Courant Number mean: 0.000150023 max: 0.00177643
GAMG:  Solving for cellDisplacementx, Initial residual = 0, Final residual = 0, No Iterations 0
GAMG:  Solving for cellDisplacementy, Initial residual = 0, Final residual = 0, No Iterations 0
GAMG:  Solving for cellDisplacementz, Initial residual = 0, Final residual = 0, No Iterations 0
PIMPLE: iteration 1
DILUPBiCG:  Solving for linUx, Initial residual = 0.0151558, Final residual = 4.36348e-05, No Iterations 1
DILUPBiCG:  Solving for linUy, Initial residual = 0.0268553, Final residual = 5.8839e-05, No Iterations 1
DILUPBiCG:  Solving for linUz, Initial residual = 0.0452278, Final residual = 8.92252e-05, No Iterations 1
GAMG:  Solving for linP, Initial residual = 1, Final residual = 0.00535542, No Iterations 3
GAMG:  Solving for linP, Initial residual = 0.0323215, Final residual = 0.000304413, No Iterations 4
GAMG:  Solving for linP, Initial residual = 0.0107545, Final residual = 5.2503e-05, No Iterations 4
Adjoint continuity errors : sum local = 3.2449e-09, global = 1.17788e-09, cumulative = 1.17788e-09
GAMG:  Solving for linP, Initial residual = 0.0223992, Final residual = 0.000108074, No Iterations 4
GAMG:  Solving for linP, Initial residual = 0.00586167, Final residual = 3.62489e-05, No Iterations 4
GAMG:  Solving for linP, Initial residual = 0.00216634, Final residual = 1.89669e-05, No Iterations 4
Adjoint continuity errors : sum local = 1.14408e-09, global = -1.138e-10, cumulative = 1.06408e-09
PIMPLE: iteration 2
DILUPBiCG:  Solving for linUx, Initial residual = 0.00157241, Final residual = 8.74646e-06, No Iterations 1
DILUPBiCG:  Solving for linUy, Initial residual = 0.00331624, Final residual = 1.69486e-05, No Iterations 1
DILUPBiCG:  Solving for linUz, Initial residual = 0.00560611, Final residual = 2.52119e-05, No Iterations 1
GAMG:  Solving for linP, Initial residual = 0.030931, Final residual = 0.000206546, No Iterations 3
GAMG:  Solving for linP, Initial residual = 0.00391922, Final residual = 3.91331e-05, No Iterations 3
GAMG:  Solving for linP, Initial residual = 0.00126501, Final residual = 7.8818e-06, No Iterations 4
Adjoint continuity errors : sum local = 4.85594e-10, global = 3.651e-11, cumulative = 1.10059e-09
GAMG:  Solving for linP, Initial residual = 0.00148165, Final residual = 8.25146e-06, No Iterations 4
GAMG:  Solving for linP, Initial residual = 0.000543517, Final residual = 4.98309e-06, No Iterations 3
GAMG:  Solving for linP, Initial residual = 0.000195299, Final residual = 1.12092e-06, No Iterations 4
Adjoint continuity errors : sum local = 6.90457e-11, global = -1.37499e-11, cumulative = 1.08684e-09
PIMPLE: iteration 3
DILUPBiCG:  Solving for linUx, Initial residual = 0.000158099, Final residual = 1.1605e-06, No Iterations 1
DILUPBiCG:  Solving for linUy, Initial residual = 0.000270382, Final residual = 4.60152e-06, No Iterations 1
DILUPBiCG:  Solving for linUz, Initial residual = 0.000368973, Final residual = 1.55625e-06, No Iterations 1
GAMG:  Solving for linP, Initial residual = 0.0381122, Final residual = 0.00035158, No Iterations 2
GAMG:  Solving for linP, Initial residual = 0.00237782, Final residual = 1.09127e-05, No Iterations 4
GAMG:  Solving for linP, Initial residual = 0.000893592, Final residual = 8.71817e-06, No Iterations 3
Adjoint continuity errors : sum local = 5.60255e-10, global = 1.99326e-10, cumulative = 1.28617e-09
GAMG:  Solving for linP, Initial residual = 0.00108908, Final residual = 6.7266e-06, No Iterations 3
GAMG:  Solving for linP, Initial residual = 0.0002233, Final residual = 2.1525e-06, No Iterations 4
GAMG:  Solving for linP, Initial residual = 9.53871e-05, Final residual = 9.1659e-07, No Iterations 4
Adjoint continuity errors : sum local = 5.89666e-11, global = -1.99387e-11, cumulative = 1.26623e-09
ExecutionTime = 11.14 s  ClockTime = 11 s

End

