/*---------------------------------------------------------------------------*\
| =========                 |                                                 |
| \\      /  F ield         | OpenFOAM: The Open Source CFD Toolbox           |
|  \\    /   O peration     | Version:  2.3.1                                 |
|   \\  /    A nd           | Web:      www.OpenFOAM.org                      |
|    \\/     M anipulation  |                                                 |
\*---------------------------------------------------------------------------*/
Build  : 2.3.1-262087cdf8db
Exec   : pimpleDyMFoam
Date   : Jun 06 2023
Time   : 00:17:58
Host   : "jcosson-VirtualBox"
PID    : 30766
Case   : /home/jcosson/workspace/henersj_shootingdata/calcs/moderate_deformed/primal/100_intervals_05-06-23/sweep15/interval15
nProcs : 1
sigFpe : Enabling floating point exception trapping (FOAM_SIGFPE).
fileModificationChecking : Monitoring run-time modified files using timeStampMaster
allowSystemOperations : Allowing user-supplied system call operations

// * * * * * * * * * * * * * * * * * * * * * * * * * * * * * * * * * * * * * //
Create time

Create mesh for time = 0.414

Selecting dynamicFvMesh dynamicMotionSolverFvMesh
Selecting motion solver: displacementLaplacian
Selecting motion diffusion: quadratic
Selecting motion diffusion: quadratic
Selecting motion diffusion: inverseDistance

PIMPLE: no residual control data found. Calculations will employ 3 corrector loops

Reading field p

Reading field U

Reading/calculating face flux field phi

Selecting incompressible transport model Newtonian
Selecting turbulence model type RASModel
Selecting RAS turbulence model kOmegaSST
kOmegaSSTCoeffs
{
    alphaK1         0.85034;
    alphaK2         1;
    alphaOmega1     0.5;
    alphaOmega2     0.85616;
    gamma1          0.5532;
    gamma2          0.4403;
    beta1           0.075;
    beta2           0.0828;
    betaStar        0.09;
    a1              0.31;
    c1              10;
    Cmu             0.09;
    b1              1;
    F3              false;
}

Reading/calculating face velocity Uf

No finite volume options present

Courant Number mean: 0.129163 max: 0.279715

Starting time loop

Courant Number mean: 0.129163 max: 0.279715
Time = 0.415

GAMG:  Solving for cellDisplacementx, Initial residual = 0, Final residual = 0, No Iterations 0
GAMG:  Solving for cellDisplacementy, Initial residual = 0, Final residual = 0, No Iterations 0
GAMG:  Solving for cellDisplacementz, Initial residual = 0, Final residual = 0, No Iterations 0
PIMPLE: iteration 1
DILUPBiCG:  Solving for Ux, Initial residual = 0.0588342, Final residual = 0.000216176, No Iterations 1
DILUPBiCG:  Solving for Uy, Initial residual = 0.0110058, Final residual = 2.0141e-05, No Iterations 1
DILUPBiCG:  Solving for Uz, Initial residual = 0.0181626, Final residual = 2.89578e-05, No Iterations 1
GAMG:  Solving for p, Initial residual = 0.142549, Final residual = 0.00105366, No Iterations 6
GAMG:  Solving for p, Initial residual = 0.0164941, Final residual = 0.000152107, No Iterations 18
GAMG:  Solving for p, Initial residual = 0.00715402, Final residual = 7.122e-05, No Iterations 10
time step continuity errors : sum local = 8.34019e-07, global = -2.16638e-07, cumulative = -2.16638e-07
GAMG:  Solving for p, Initial residual = 0.0598326, Final residual = 0.000369219, No Iterations 6
GAMG:  Solving for p, Initial residual = 0.00834844, Final residual = 7.5356e-05, No Iterations 16
GAMG:  Solving for p, Initial residual = 0.00375159, Final residual = 3.67004e-05, No Iterations 10
time step continuity errors : sum local = 4.31167e-07, global = -1.11948e-07, cumulative = -3.28586e-07
PIMPLE: iteration 2
DILUPBiCG:  Solving for Ux, Initial residual = 0.0164419, Final residual = 9.69859e-05, No Iterations 1
DILUPBiCG:  Solving for Uy, Initial residual = 0.00301153, Final residual = 6.67228e-06, No Iterations 1
DILUPBiCG:  Solving for Uz, Initial residual = 0.00407177, Final residual = 1.90574e-05, No Iterations 1
GAMG:  Solving for p, Initial residual = 0.061398, Final residual = 0.000355721, No Iterations 4
GAMG:  Solving for p, Initial residual = 0.00947229, Final residual = 8.44165e-05, No Iterations 14
GAMG:  Solving for p, Initial residual = 0.00446309, Final residual = 3.80215e-05, No Iterations 8
time step continuity errors : sum local = 3.85305e-07, global = 1.2134e-07, cumulative = -2.07246e-07
GAMG:  Solving for p, Initial residual = 0.0311529, Final residual = 0.000161856, No Iterations 4
GAMG:  Solving for p, Initial residual = 0.00485578, Final residual = 4.29942e-05, No Iterations 12
GAMG:  Solving for p, Initial residual = 0.0022158, Final residual = 2.17822e-05, No Iterations 6
time step continuity errors : sum local = 2.21583e-07, global = 7.35533e-08, cumulative = -1.33693e-07
PIMPLE: iteration 3
DILUPBiCG:  Solving for Ux, Initial residual = 0.0041633, Final residual = 1.6762e-06, No Iterations 2
DILUPBiCG:  Solving for Uy, Initial residual = 0.000765512, Final residual = 6.3892e-06, No Iterations 1
DILUPBiCG:  Solving for Uz, Initial residual = 0.00730117, Final residual = 2.84129e-06, No Iterations 2
GAMG:  Solving for p, Initial residual = 0.0386663, Final residual = 0.00033793, No Iterations 5
GAMG:  Solving for p, Initial residual = 0.00816056, Final residual = 7.92317e-05, No Iterations 15
GAMG:  Solving for p, Initial residual = 0.0039873, Final residual = 3.47099e-05, No Iterations 10
time step continuity errors : sum local = 3.96727e-07, global = 1.02404e-07, cumulative = -3.12887e-08
GAMG:  Solving for p, Initial residual = 0.00208044, Final residual = 1.75803e-05, No Iterations 8
GAMG:  Solving for p, Initial residual = 0.00111269, Final residual = 9.10528e-06, No Iterations 5
GAMG:  Solving for p, Initial residual = 0.000464949, Final residual = 9.85713e-07, No Iterations 26
time step continuity errors : sum local = 1.11768e-08, global = -3.33234e-09, cumulative = -3.4621e-08
DILUPBiCG:  Solving for omega, Initial residual = 0.000976475, Final residual = 7.71684e-07, No Iterations 1
DILUPBiCG:  Solving for k, Initial residual = 0.00370902, Final residual = 1.15507e-06, No Iterations 2
ExecutionTime = 17.08 s  ClockTime = 17 s

End

