/*---------------------------------------------------------------------------*\
| =========                 |                                                 |
| \\      /  F ield         | OpenFOAM: The Open Source CFD Toolbox           |
|  \\    /   O peration     | Version:  2.3.1                                 |
|   \\  /    A nd           | Web:      www.OpenFOAM.org                      |
|    \\/     M anipulation  |                                                 |
\*---------------------------------------------------------------------------*/
Build  : 2.3.1-262087cdf8db
Exec   : computePressureDropFoam start end
Date   : Jun 06 2023
Time   : 01:35:53
Host   : "jcosson-VirtualBox"
PID    : 5047
Case   : /home/jcosson/workspace/henersj_shootingdata/calcs/moderate_deformed/primal/100_intervals_05-06-23/sweep39/postProcessing
nProcs : 1
sigFpe : Enabling floating point exception trapping (FOAM_SIGFPE).
fileModificationChecking : Monitoring run-time modified files using timeStampMaster
allowSystemOperations : Allowing user-supplied system call operations

// * * * * * * * * * * * * * * * * * * * * * * * * * * * * * * * * * * * * * //
Create time

Create mesh for time = 0.4

    Time step size is:        deltaT=0.001

Time = 0.4

Time = 0.401

Time = 0.402

Time = 0.403

Time = 0.404

Time = 0.405

Time = 0.406

Time = 0.407

Time = 0.408

Time = 0.409

Time = 0.41

Time = 0.411

Time = 0.412

Time = 0.413

Time = 0.414

Time = 0.415

Time = 0.416

Time = 0.417

Time = 0.418

Time = 0.419

Time = 0.42

Time = 0.421

Time = 0.422

Time = 0.423

Time = 0.424

Time = 0.425

Time = 0.426

Time = 0.427

Time = 0.428

Time = 0.429

Time = 0.43

Time = 0.431

Time = 0.432

Time = 0.433

Time = 0.434

Time = 0.435

Time = 0.436

Time = 0.437

Time = 0.438

Time = 0.439

Time = 0.44

Time = 0.441

Time = 0.442

Time = 0.443

Time = 0.444

Time = 0.445

Time = 0.446

Time = 0.447

Time = 0.448

Time = 0.449

Time = 0.45

Time = 0.451

Time = 0.452

Time = 0.453

Time = 0.454

Time = 0.455

Time = 0.456

Time = 0.457

Time = 0.458

Time = 0.459

Time = 0.46

Time = 0.461

Time = 0.462

Time = 0.463

Time = 0.464

Time = 0.465

Time = 0.466

Time = 0.467

Time = 0.468

Time = 0.469

Time = 0.47

Time = 0.471

Time = 0.472

Time = 0.473

Time = 0.474

Time = 0.475

Time = 0.476

Time = 0.477

Time = 0.478

Time = 0.479

Time = 0.48

Time = 0.481

Time = 0.482

Time = 0.483

Time = 0.484

Time = 0.485

Time = 0.486

Time = 0.487

Time = 0.488

Time = 0.489

Time = 0.49

Time = 0.491

Time = 0.492

Time = 0.493

Time = 0.494

Time = 0.495

Time = 0.496

Time = 0.497

Time = 0.498

Time = 0.499

Time = 0.5


 
 deltaT is     0.001


pressureDrop is     1.10221e-07


inlet static pressure drop is   0.000196832


outlet static pressure drop is  -0.000196786


inlet dynamic pressure drop is  9.88629e-08


outlet dynamic pressure drop is -1.48025e-07


End
