/*---------------------------------------------------------------------------*\
| =========                 |                                                 |
| \\      /  F ield         | OpenFOAM: The Open Source CFD Toolbox           |
|  \\    /   O peration     | Version:  2.3.1                                 |
|   \\  /    A nd           | Web:      www.OpenFOAM.org                      |
|    \\/     M anipulation  |                                                 |
\*---------------------------------------------------------------------------*/
Build  : 2.3.1-262087cdf8db
Exec   : linearisedPimpleDyMFoam
Date   : Jun 05 2023
Time   : 19:29:03
Host   : "jcosson-VirtualBox"
PID    : 6304
Case   : /home/jcosson/workspace/henersj_shootingdata/calcs/moderate_deformed/primal/56_intervals_05-06-23/sweep44/interval50
nProcs : 1
sigFpe : Enabling floating point exception trapping (FOAM_SIGFPE).
fileModificationChecking : Monitoring run-time modified files using timeStampMaster
allowSystemOperations : Allowing user-supplied system call operations

// * * * * * * * * * * * * * * * * * * * * * * * * * * * * * * * * * * * * * //
Create time

Create mesh for time = 0.488

Selecting dynamicFvMesh dynamicMotionSolverFvMesh
Selecting motion solver: displacementLaplacian
Selecting motion diffusion: quadratic
Selecting motion diffusion: quadratic
Selecting motion diffusion: inverseDistance
Reading field linP

Reading field linU

starte createPhia.H

Reading/calculating face flux field linPhi

Adjungierte Interpolation durchgefuehrt

createPhia.H verlassen

setRefCell ausgefuehrt

No finite volume options present


PIMPLE: no residual control data found. Calculations will employ 3 corrector loops


Starting time loop

Time = 0.489

Reading field p

Reading field U

Read primal fluxes 

Reading primal face flux fields phi/meshPhi

Created primal fluxes 

Selecting incompressible transport model Newtonian
singlePhaseTransportModel gewaehlt 

Selecting turbulence model type RASModel
Selecting RAS turbulence model kOmegaSST
bounding k, min: 0 max: 0.000592356 average: 0.000149117
kOmegaSSTCoeffs
{
    alphaK1         0.85034;
    alphaK2         1;
    alphaOmega1     0.5;
    alphaOmega2     0.85616;
    gamma1          0.5532;
    gamma2          0.4403;
    beta1           0.075;
    beta2           0.0828;
    betaStar        0.09;
    a1              0.31;
    c1              10;
    Cmu             0.09;
    b1              1;
    F3              false;
}

autoPtr ausgefuehrt

Reading/calculating face velocity Uf

Init adjoint face velocity linUf

Courant Number mean: 0.119083 max: 0.257509
Adjoint Courant Number mean: 0.000115855 max: 0.00209418
GAMG:  Solving for cellDisplacementx, Initial residual = 0, Final residual = 0, No Iterations 0
GAMG:  Solving for cellDisplacementy, Initial residual = 0, Final residual = 0, No Iterations 0
GAMG:  Solving for cellDisplacementz, Initial residual = 0, Final residual = 0, No Iterations 0
PIMPLE: iteration 1
DILUPBiCG:  Solving for linUx, Initial residual = 0.0117792, Final residual = 3.16272e-05, No Iterations 1
DILUPBiCG:  Solving for linUy, Initial residual = 0.0246766, Final residual = 4.10623e-05, No Iterations 1
DILUPBiCG:  Solving for linUz, Initial residual = 0.0518057, Final residual = 0.000100278, No Iterations 1
GAMG:  Solving for linP, Initial residual = 1, Final residual = 0.00621967, No Iterations 3
GAMG:  Solving for linP, Initial residual = 0.037001, Final residual = 0.000307336, No Iterations 4
GAMG:  Solving for linP, Initial residual = 0.01334, Final residual = 8.27963e-05, No Iterations 4
Adjoint continuity errors : sum local = 3.11802e-09, global = -8.18624e-10, cumulative = -8.18624e-10
GAMG:  Solving for linP, Initial residual = 0.0254372, Final residual = 0.000139082, No Iterations 4
GAMG:  Solving for linP, Initial residual = 0.00709949, Final residual = 3.56672e-05, No Iterations 4
GAMG:  Solving for linP, Initial residual = 0.00267215, Final residual = 2.43736e-05, No Iterations 4
Adjoint continuity errors : sum local = 8.90622e-10, global = -8.05217e-12, cumulative = -8.26677e-10
PIMPLE: iteration 2
DILUPBiCG:  Solving for linUx, Initial residual = 0.00128795, Final residual = 9.59266e-06, No Iterations 1
DILUPBiCG:  Solving for linUy, Initial residual = 0.00302207, Final residual = 7.57877e-06, No Iterations 1
DILUPBiCG:  Solving for linUz, Initial residual = 0.00451557, Final residual = 1.23422e-05, No Iterations 1
GAMG:  Solving for linP, Initial residual = 0.0301115, Final residual = 0.000198581, No Iterations 3
GAMG:  Solving for linP, Initial residual = 0.0046223, Final residual = 2.76204e-05, No Iterations 4
GAMG:  Solving for linP, Initial residual = 0.00152196, Final residual = 1.35222e-05, No Iterations 3
Adjoint continuity errors : sum local = 5.00756e-10, global = -4.05146e-12, cumulative = -8.30728e-10
GAMG:  Solving for linP, Initial residual = 0.00164414, Final residual = 8.77715e-06, No Iterations 4
GAMG:  Solving for linP, Initial residual = 0.000651919, Final residual = 5.78799e-06, No Iterations 3
GAMG:  Solving for linP, Initial residual = 0.000234216, Final residual = 1.39071e-06, No Iterations 4
Adjoint continuity errors : sum local = 5.14943e-11, global = 7.47781e-12, cumulative = -8.2325e-10
PIMPLE: iteration 3
DILUPBiCG:  Solving for linUx, Initial residual = 0.000124055, Final residual = 7.21617e-07, No Iterations 1
DILUPBiCG:  Solving for linUy, Initial residual = 0.000251225, Final residual = 1.55887e-06, No Iterations 1
DILUPBiCG:  Solving for linUz, Initial residual = 0.000308957, Final residual = 3.02601e-06, No Iterations 1
GAMG:  Solving for linP, Initial residual = 0.0356101, Final residual = 0.000327659, No Iterations 2
GAMG:  Solving for linP, Initial residual = 0.00271245, Final residual = 1.5304e-05, No Iterations 4
GAMG:  Solving for linP, Initial residual = 0.00105311, Final residual = 4.90788e-06, No Iterations 4
Adjoint continuity errors : sum local = 1.89915e-10, global = -4.4677e-11, cumulative = -8.67927e-10
GAMG:  Solving for linP, Initial residual = 0.00114569, Final residual = 6.30745e-06, No Iterations 3
GAMG:  Solving for linP, Initial residual = 0.000259497, Final residual = 1.38016e-06, No Iterations 4
GAMG:  Solving for linP, Initial residual = 0.000108483, Final residual = 4.01821e-07, No Iterations 4
Adjoint continuity errors : sum local = 1.5564e-11, global = 1.73512e-12, cumulative = -8.66192e-10
ExecutionTime = 10.27 s  ClockTime = 10 s

End

