/*---------------------------------------------------------------------------*\
| =========                 |                                                 |
| \\      /  F ield         | OpenFOAM: The Open Source CFD Toolbox           |
|  \\    /   O peration     | Version:  2.3.1                                 |
|   \\  /    A nd           | Web:      www.OpenFOAM.org                      |
|    \\/     M anipulation  |                                                 |
\*---------------------------------------------------------------------------*/
Build  : 2.3.1-262087cdf8db
Exec   : linearisedPimpleDyMFoam
Date   : Jun 05 2023
Time   : 19:22:48
Host   : "jcosson-VirtualBox"
PID    : 4186
Case   : /home/jcosson/workspace/henersj_shootingdata/calcs/moderate_deformed/primal/56_intervals_05-06-23/sweep39/interval44
nProcs : 1
sigFpe : Enabling floating point exception trapping (FOAM_SIGFPE).
fileModificationChecking : Monitoring run-time modified files using timeStampMaster
allowSystemOperations : Allowing user-supplied system call operations

// * * * * * * * * * * * * * * * * * * * * * * * * * * * * * * * * * * * * * //
Create time

Create mesh for time = 0.477

Selecting dynamicFvMesh dynamicMotionSolverFvMesh
Selecting motion solver: displacementLaplacian
Selecting motion diffusion: quadratic
Selecting motion diffusion: quadratic
Selecting motion diffusion: inverseDistance
Reading field linP

Reading field linU

starte createPhia.H

Reading/calculating face flux field linPhi

Adjungierte Interpolation durchgefuehrt

createPhia.H verlassen

setRefCell ausgefuehrt

No finite volume options present


PIMPLE: no residual control data found. Calculations will employ 3 corrector loops


Starting time loop

Time = 0.478

Reading field p

Reading field U

Read primal fluxes 

Reading primal face flux fields phi/meshPhi

Created primal fluxes 

Selecting incompressible transport model Newtonian
singlePhaseTransportModel gewaehlt 

Selecting turbulence model type RASModel
Selecting RAS turbulence model kOmegaSST
bounding k, min: 0 max: 0.000700181 average: 0.00015955
kOmegaSSTCoeffs
{
    alphaK1         0.85034;
    alphaK2         1;
    alphaOmega1     0.5;
    alphaOmega2     0.85616;
    gamma1          0.5532;
    gamma2          0.4403;
    beta1           0.075;
    beta2           0.0828;
    betaStar        0.09;
    a1              0.31;
    c1              10;
    Cmu             0.09;
    b1              1;
    F3              false;
}

autoPtr ausgefuehrt

Reading/calculating face velocity Uf

Init adjoint face velocity linUf

Courant Number mean: 0.171978 max: 0.379132
Adjoint Courant Number mean: 0.000126072 max: 0.0023421
GAMG:  Solving for cellDisplacementx, Initial residual = 0, Final residual = 0, No Iterations 0
GAMG:  Solving for cellDisplacementy, Initial residual = 0, Final residual = 0, No Iterations 0
GAMG:  Solving for cellDisplacementz, Initial residual = 0, Final residual = 0, No Iterations 0
PIMPLE: iteration 1
DILUPBiCG:  Solving for linUx, Initial residual = 0.0212667, Final residual = 6.18491e-05, No Iterations 1
DILUPBiCG:  Solving for linUy, Initial residual = 0.0438294, Final residual = 9.56685e-05, No Iterations 1
DILUPBiCG:  Solving for linUz, Initial residual = 0.0841758, Final residual = 0.000174685, No Iterations 1
GAMG:  Solving for linP, Initial residual = 1, Final residual = 0.0038615, No Iterations 3
GAMG:  Solving for linP, Initial residual = 0.0226067, Final residual = 0.000193154, No Iterations 4
GAMG:  Solving for linP, Initial residual = 0.00809559, Final residual = 4.80073e-05, No Iterations 4
Adjoint continuity errors : sum local = 4.21596e-09, global = -2.13124e-11, cumulative = -2.13124e-11
GAMG:  Solving for linP, Initial residual = 0.0326099, Final residual = 0.000110873, No Iterations 4
GAMG:  Solving for linP, Initial residual = 0.00561298, Final residual = 2.92648e-05, No Iterations 4
GAMG:  Solving for linP, Initial residual = 0.00207272, Final residual = 1.82175e-05, No Iterations 4
Adjoint continuity errors : sum local = 1.5259e-09, global = 6.54004e-11, cumulative = 4.4088e-11
PIMPLE: iteration 2
DILUPBiCG:  Solving for linUx, Initial residual = 0.0021294, Final residual = 5.27447e-05, No Iterations 1
DILUPBiCG:  Solving for linUy, Initial residual = 0.0046926, Final residual = 1.66243e-05, No Iterations 1
DILUPBiCG:  Solving for linUz, Initial residual = 0.00710429, Final residual = 1.66388e-05, No Iterations 1
GAMG:  Solving for linP, Initial residual = 0.0313749, Final residual = 0.000135924, No Iterations 3
GAMG:  Solving for linP, Initial residual = 0.00334502, Final residual = 2.67184e-05, No Iterations 3
GAMG:  Solving for linP, Initial residual = 0.00108253, Final residual = 8.42094e-06, No Iterations 4
Adjoint continuity errors : sum local = 7.2059e-10, global = 5.86056e-11, cumulative = 1.02694e-10
GAMG:  Solving for linP, Initial residual = 0.00184169, Final residual = 6.60932e-06, No Iterations 4
GAMG:  Solving for linP, Initial residual = 0.000550746, Final residual = 4.79627e-06, No Iterations 3
GAMG:  Solving for linP, Initial residual = 0.000192063, Final residual = 1.07447e-06, No Iterations 4
Adjoint continuity errors : sum local = 9.18795e-11, global = 2.70608e-11, cumulative = 1.29754e-10
PIMPLE: iteration 3
DILUPBiCG:  Solving for linUx, Initial residual = 0.00025577, Final residual = 1.61787e-06, No Iterations 1
DILUPBiCG:  Solving for linUy, Initial residual = 0.000500431, Final residual = 3.84915e-06, No Iterations 1
DILUPBiCG:  Solving for linUz, Initial residual = 0.000661314, Final residual = 1.27727e-07, No Iterations 2
GAMG:  Solving for linP, Initial residual = 0.0363829, Final residual = 0.000279391, No Iterations 2
GAMG:  Solving for linP, Initial residual = 0.00191212, Final residual = 6.30858e-06, No Iterations 4
GAMG:  Solving for linP, Initial residual = 0.000700861, Final residual = 2.45836e-06, No Iterations 4
Adjoint continuity errors : sum local = 2.19539e-10, global = 1.20587e-11, cumulative = 1.41813e-10
GAMG:  Solving for linP, Initial residual = 0.0016093, Final residual = 7.40331e-06, No Iterations 3
GAMG:  Solving for linP, Initial residual = 0.000223303, Final residual = 1.73067e-06, No Iterations 3
GAMG:  Solving for linP, Initial residual = 8.45178e-05, Final residual = 9.02805e-07, No Iterations 3
Adjoint continuity errors : sum local = 8.07786e-11, global = 1.45485e-12, cumulative = 1.43268e-10
ExecutionTime = 12.49 s  ClockTime = 12 s

Time = 0.479

Reading field p

Reading field U

Read primal fluxes 

Reading primal face flux fields phi/meshPhi

Created primal fluxes 

Selecting incompressible transport model Newtonian
singlePhaseTransportModel gewaehlt 

Selecting turbulence model type RASModel
Selecting RAS turbulence model kOmegaSST
bounding k, min: 0 max: 0.000692406 average: 0.000158502
kOmegaSSTCoeffs
{
    alphaK1         0.85034;
    alphaK2         1;
    alphaOmega1     0.5;
    alphaOmega2     0.85616;
    gamma1          0.5532;
    gamma2          0.4403;
    beta1           0.075;
    beta2           0.0828;
    betaStar        0.09;
    a1              0.31;
    c1              10;
    Cmu             0.09;
    b1              1;
    F3              false;
}

autoPtr ausgefuehrt

Reading/calculating face velocity Uf

Init adjoint face velocity linUf

Courant Number mean: 0.166409 max: 0.366369
Adjoint Courant Number mean: 0.000123642 max: 0.00174595
GAMG:  Solving for cellDisplacementx, Initial residual = 0, Final residual = 0, No Iterations 0
GAMG:  Solving for cellDisplacementy, Initial residual = 0, Final residual = 0, No Iterations 0
GAMG:  Solving for cellDisplacementz, Initial residual = 0, Final residual = 0, No Iterations 0
PIMPLE: iteration 1
DILUPBiCG:  Solving for linUx, Initial residual = 0.0160037, Final residual = 4.05993e-05, No Iterations 1
DILUPBiCG:  Solving for linUy, Initial residual = 0.0366207, Final residual = 6.91707e-05, No Iterations 1
DILUPBiCG:  Solving for linUz, Initial residual = 0.0535542, Final residual = 9.70818e-05, No Iterations 1
GAMG:  Solving for linP, Initial residual = 0.267841, Final residual = 0.000873686, No Iterations 3
GAMG:  Solving for linP, Initial residual = 0.0114775, Final residual = 7.49197e-05, No Iterations 4
GAMG:  Solving for linP, Initial residual = 0.00323967, Final residual = 2.24264e-05, No Iterations 4
Adjoint continuity errors : sum local = 2.63895e-09, global = -6.82504e-10, cumulative = -5.39237e-10
GAMG:  Solving for linP, Initial residual = 0.00956636, Final residual = 3.07438e-05, No Iterations 4
GAMG:  Solving for linP, Initial residual = 0.00204704, Final residual = 1.1841e-05, No Iterations 4
GAMG:  Solving for linP, Initial residual = 0.000647779, Final residual = 5.70221e-06, No Iterations 4
Adjoint continuity errors : sum local = 6.66822e-10, global = 5.85768e-11, cumulative = -4.8066e-10
PIMPLE: iteration 2
DILUPBiCG:  Solving for linUx, Initial residual = 0.00167729, Final residual = 2.36113e-05, No Iterations 1
DILUPBiCG:  Solving for linUy, Initial residual = 0.00329436, Final residual = 2.65014e-05, No Iterations 1
DILUPBiCG:  Solving for linUz, Initial residual = 0.00421208, Final residual = 9.12076e-06, No Iterations 1
GAMG:  Solving for linP, Initial residual = 0.013952, Final residual = 5.91539e-05, No Iterations 3
GAMG:  Solving for linP, Initial residual = 0.000932948, Final residual = 4.96403e-06, No Iterations 4
GAMG:  Solving for linP, Initial residual = 0.000303582, Final residual = 2.6465e-06, No Iterations 3
Adjoint continuity errors : sum local = 3.14062e-10, global = 2.01378e-12, cumulative = -4.78646e-10
GAMG:  Solving for linP, Initial residual = 0.000630464, Final residual = 5.00406e-06, No Iterations 3
GAMG:  Solving for linP, Initial residual = 0.000129953, Final residual = 9.84008e-07, No Iterations 4
GAMG:  Solving for linP, Initial residual = 4.64203e-05, Final residual = 8.54745e-07, No Iterations 3
Adjoint continuity errors : sum local = 1.01423e-10, global = -1.26609e-11, cumulative = -4.91307e-10
PIMPLE: iteration 3
DILUPBiCG:  Solving for linUx, Initial residual = 0.000221436, Final residual = 1.35416e-06, No Iterations 1
DILUPBiCG:  Solving for linUy, Initial residual = 0.000421225, Final residual = 2.6474e-06, No Iterations 1
DILUPBiCG:  Solving for linUz, Initial residual = 0.000550987, Final residual = 3.95634e-06, No Iterations 1
GAMG:  Solving for linP, Initial residual = 0.0416642, Final residual = 0.000399776, No Iterations 2
GAMG:  Solving for linP, Initial residual = 0.00144124, Final residual = 7.8728e-06, No Iterations 4
GAMG:  Solving for linP, Initial residual = 0.000489307, Final residual = 2.1555e-06, No Iterations 4
Adjoint continuity errors : sum local = 2.62655e-10, global = 2.19572e-11, cumulative = -4.6935e-10
GAMG:  Solving for linP, Initial residual = 0.00147629, Final residual = 6.99936e-06, No Iterations 3
GAMG:  Solving for linP, Initial residual = 0.00016489, Final residual = 1.55473e-06, No Iterations 3
GAMG:  Solving for linP, Initial residual = 6.04035e-05, Final residual = 5.13138e-07, No Iterations 4
Adjoint continuity errors : sum local = 6.26273e-11, global = -5.9212e-12, cumulative = -4.75271e-10
ExecutionTime = 23.23 s  ClockTime = 23 s

End

