/*---------------------------------------------------------------------------*\
| =========                 |                                                 |
| \\      /  F ield         | OpenFOAM: The Open Source CFD Toolbox           |
|  \\    /   O peration     | Version:  2.3.1                                 |
|   \\  /    A nd           | Web:      www.OpenFOAM.org                      |
|    \\/     M anipulation  |                                                 |
\*---------------------------------------------------------------------------*/
Build  : 2.3.1-262087cdf8db
Exec   : pimpleDyMFoam
Date   : Jun 06 2023
Time   : 01:23:31
Host   : "jcosson-VirtualBox"
PID    : 31424
Case   : /home/jcosson/workspace/henersj_shootingdata/calcs/moderate_deformed/primal/100_intervals_05-06-23/sweep35/interval43
nProcs : 1
sigFpe : Enabling floating point exception trapping (FOAM_SIGFPE).
fileModificationChecking : Monitoring run-time modified files using timeStampMaster
allowSystemOperations : Allowing user-supplied system call operations

// * * * * * * * * * * * * * * * * * * * * * * * * * * * * * * * * * * * * * //
Create time

Create mesh for time = 0.442

Selecting dynamicFvMesh dynamicMotionSolverFvMesh
Selecting motion solver: displacementLaplacian
Selecting motion diffusion: quadratic
Selecting motion diffusion: quadratic
Selecting motion diffusion: inverseDistance

PIMPLE: no residual control data found. Calculations will employ 3 corrector loops

Reading field p

Reading field U

Reading/calculating face flux field phi

Selecting incompressible transport model Newtonian
Selecting turbulence model type RASModel
Selecting RAS turbulence model kOmegaSST
kOmegaSSTCoeffs
{
    alphaK1         0.85034;
    alphaK2         1;
    alphaOmega1     0.5;
    alphaOmega2     0.85616;
    gamma1          0.5532;
    gamma2          0.4403;
    beta1           0.075;
    beta2           0.0828;
    betaStar        0.09;
    a1              0.31;
    c1              10;
    Cmu             0.09;
    b1              1;
    F3              false;
}

Reading/calculating face velocity Uf

No finite volume options present

Courant Number mean: 0.268579 max: 0.591938

Starting time loop

Courant Number mean: 0.268579 max: 0.591938
Time = 0.443

GAMG:  Solving for cellDisplacementx, Initial residual = 0, Final residual = 0, No Iterations 0
GAMG:  Solving for cellDisplacementy, Initial residual = 0, Final residual = 0, No Iterations 0
GAMG:  Solving for cellDisplacementz, Initial residual = 0, Final residual = 0, No Iterations 0
PIMPLE: iteration 1
DILUPBiCG:  Solving for Ux, Initial residual = 0.0223052, Final residual = 7.6892e-05, No Iterations 1
DILUPBiCG:  Solving for Uy, Initial residual = 0.00347683, Final residual = 1.03062e-05, No Iterations 1
DILUPBiCG:  Solving for Uz, Initial residual = 0.0103183, Final residual = 2.15852e-05, No Iterations 1
GAMG:  Solving for p, Initial residual = 0.117659, Final residual = 0.000687862, No Iterations 4
GAMG:  Solving for p, Initial residual = 0.0169489, Final residual = 0.000162272, No Iterations 12
GAMG:  Solving for p, Initial residual = 0.00734889, Final residual = 6.34641e-05, No Iterations 12
time step continuity errors : sum local = 5.26702e-07, global = -1.58048e-07, cumulative = -1.58048e-07
GAMG:  Solving for p, Initial residual = 0.0533671, Final residual = 0.00027398, No Iterations 4
GAMG:  Solving for p, Initial residual = 0.00828332, Final residual = 6.9912e-05, No Iterations 12
GAMG:  Solving for p, Initial residual = 0.00368453, Final residual = 3.37192e-05, No Iterations 10
time step continuity errors : sum local = 2.8098e-07, global = -7.75216e-08, cumulative = -2.3557e-07
PIMPLE: iteration 2
DILUPBiCG:  Solving for Ux, Initial residual = 0.00616085, Final residual = 2.46361e-05, No Iterations 1
DILUPBiCG:  Solving for Uy, Initial residual = 0.000988147, Final residual = 6.13904e-06, No Iterations 1
DILUPBiCG:  Solving for Uz, Initial residual = 0.00312815, Final residual = 1.09382e-05, No Iterations 1
GAMG:  Solving for p, Initial residual = 0.0532375, Final residual = 0.000514537, No Iterations 5
GAMG:  Solving for p, Initial residual = 0.0139628, Final residual = 0.000127489, No Iterations 11
GAMG:  Solving for p, Initial residual = 0.00488647, Final residual = 4.35057e-05, No Iterations 14
time step continuity errors : sum local = 3.09608e-07, global = 9.45149e-08, cumulative = -1.41055e-07
GAMG:  Solving for p, Initial residual = 0.0281936, Final residual = 0.000260818, No Iterations 4
GAMG:  Solving for p, Initial residual = 0.00663327, Final residual = 5.52113e-05, No Iterations 12
GAMG:  Solving for p, Initial residual = 0.00233536, Final residual = 2.18883e-05, No Iterations 12
time step continuity errors : sum local = 1.5676e-07, global = 4.6138e-08, cumulative = -9.49169e-08
PIMPLE: iteration 3
DILUPBiCG:  Solving for Ux, Initial residual = 0.00129234, Final residual = 8.6341e-06, No Iterations 1
DILUPBiCG:  Solving for Uy, Initial residual = 0.000212713, Final residual = 7.29236e-06, No Iterations 1
DILUPBiCG:  Solving for Uz, Initial residual = 0.00419984, Final residual = 1.44181e-06, No Iterations 2
GAMG:  Solving for p, Initial residual = 0.0503353, Final residual = 0.000386846, No Iterations 5
GAMG:  Solving for p, Initial residual = 0.0136632, Final residual = 0.000114894, No Iterations 12
GAMG:  Solving for p, Initial residual = 0.00594772, Final residual = 5.74597e-05, No Iterations 10
time step continuity errors : sum local = 4.53021e-07, global = 1.20686e-07, cumulative = 2.57691e-08
GAMG:  Solving for p, Initial residual = 0.00366189, Final residual = 3.2893e-05, No Iterations 14
GAMG:  Solving for p, Initial residual = 0.00217691, Final residual = 1.62053e-05, No Iterations 4
GAMG:  Solving for p, Initial residual = 0.000723974, Final residual = 9.97359e-07, No Iterations 38
time step continuity errors : sum local = 7.83294e-09, global = -2.31001e-09, cumulative = 2.34591e-08
DILUPBiCG:  Solving for omega, Initial residual = 0.00116082, Final residual = 1.46843e-06, No Iterations 1
DILUPBiCG:  Solving for k, Initial residual = 0.00635993, Final residual = 1.06758e-06, No Iterations 2
ExecutionTime = 17.69 s  ClockTime = 18 s

End

