/*---------------------------------------------------------------------------*\
| =========                 |                                                 |
| \\      /  F ield         | OpenFOAM: The Open Source CFD Toolbox           |
|  \\    /   O peration     | Version:  2.3.1                                 |
|   \\  /    A nd           | Web:      www.OpenFOAM.org                      |
|    \\/     M anipulation  |                                                 |
\*---------------------------------------------------------------------------*/
Build  : 2.3.1-262087cdf8db
Exec   : pimpleDyMFoam
Date   : Jun 06 2023
Time   : 01:24:24
Host   : "jcosson-VirtualBox"
PID    : 31516
Case   : /home/jcosson/workspace/henersj_shootingdata/calcs/moderate_deformed/primal/100_intervals_05-06-23/sweep35/interval90
nProcs : 1
sigFpe : Enabling floating point exception trapping (FOAM_SIGFPE).
fileModificationChecking : Monitoring run-time modified files using timeStampMaster
allowSystemOperations : Allowing user-supplied system call operations

// * * * * * * * * * * * * * * * * * * * * * * * * * * * * * * * * * * * * * //
Create time

Create mesh for time = 0.489

Selecting dynamicFvMesh dynamicMotionSolverFvMesh
Selecting motion solver: displacementLaplacian
Selecting motion diffusion: quadratic
Selecting motion diffusion: quadratic
Selecting motion diffusion: inverseDistance

PIMPLE: no residual control data found. Calculations will employ 3 corrector loops

Reading field p

Reading field U

Reading/calculating face flux field phi

Selecting incompressible transport model Newtonian
Selecting turbulence model type RASModel
Selecting RAS turbulence model kOmegaSST
bounding k, min: 0 max: 0.000639825 average: 0.000155117
kOmegaSSTCoeffs
{
    alphaK1         0.85034;
    alphaK2         1;
    alphaOmega1     0.5;
    alphaOmega2     0.85616;
    gamma1          0.5532;
    gamma2          0.4403;
    beta1           0.075;
    beta2           0.0828;
    betaStar        0.09;
    a1              0.31;
    c1              10;
    Cmu             0.09;
    b1              1;
    F3              false;
}

Reading/calculating face velocity Uf

No finite volume options present

Courant Number mean: 0.119457 max: 0.27258

Starting time loop

Courant Number mean: 0.119457 max: 0.27258
Time = 0.49

GAMG:  Solving for cellDisplacementx, Initial residual = 0, Final residual = 0, No Iterations 0
GAMG:  Solving for cellDisplacementy, Initial residual = 0, Final residual = 0, No Iterations 0
GAMG:  Solving for cellDisplacementz, Initial residual = 0, Final residual = 0, No Iterations 0
PIMPLE: iteration 1
DILUPBiCG:  Solving for Ux, Initial residual = 0.0544985, Final residual = 0.000201098, No Iterations 1
DILUPBiCG:  Solving for Uy, Initial residual = 0.0110009, Final residual = 2.19761e-05, No Iterations 1
DILUPBiCG:  Solving for Uz, Initial residual = 0.0153424, Final residual = 1.40685e-05, No Iterations 1
GAMG:  Solving for p, Initial residual = 0.115971, Final residual = 0.000686405, No Iterations 4
GAMG:  Solving for p, Initial residual = 0.0160435, Final residual = 0.00015332, No Iterations 16
GAMG:  Solving for p, Initial residual = 0.00774896, Final residual = 6.70496e-05, No Iterations 4
time step continuity errors : sum local = 7.29106e-07, global = 2.44582e-07, cumulative = 2.44582e-07
GAMG:  Solving for p, Initial residual = 0.0524789, Final residual = 0.00029029, No Iterations 4
GAMG:  Solving for p, Initial residual = 0.00791583, Final residual = 6.77281e-05, No Iterations 16
GAMG:  Solving for p, Initial residual = 0.00389965, Final residual = 3.49618e-05, No Iterations 4
time step continuity errors : sum local = 3.82897e-07, global = 9.97821e-08, cumulative = 3.44364e-07
PIMPLE: iteration 2
DILUPBiCG:  Solving for Ux, Initial residual = 0.0140368, Final residual = 7.94363e-05, No Iterations 1
DILUPBiCG:  Solving for Uy, Initial residual = 0.00291453, Final residual = 5.80926e-06, No Iterations 1
DILUPBiCG:  Solving for Uz, Initial residual = 0.0024952, Final residual = 8.21985e-06, No Iterations 1
GAMG:  Solving for p, Initial residual = 0.0513667, Final residual = 0.000512823, No Iterations 4
GAMG:  Solving for p, Initial residual = 0.011017, Final residual = 0.000106891, No Iterations 14
GAMG:  Solving for p, Initial residual = 0.00499656, Final residual = 4.11968e-05, No Iterations 4
time step continuity errors : sum local = 3.92179e-07, global = -1.36224e-07, cumulative = 2.0814e-07
GAMG:  Solving for p, Initial residual = 0.0273013, Final residual = 0.000245569, No Iterations 4
GAMG:  Solving for p, Initial residual = 0.00607626, Final residual = 5.5562e-05, No Iterations 12
GAMG:  Solving for p, Initial residual = 0.00240032, Final residual = 2.10957e-05, No Iterations 4
time step continuity errors : sum local = 2.01109e-07, global = -7.15926e-08, cumulative = 1.36548e-07
PIMPLE: iteration 3
DILUPBiCG:  Solving for Ux, Initial residual = 0.0029438, Final residual = 2.36419e-06, No Iterations 2
DILUPBiCG:  Solving for Uy, Initial residual = 0.000653056, Final residual = 4.70245e-06, No Iterations 1
DILUPBiCG:  Solving for Uz, Initial residual = 0.00437494, Final residual = 1.31573e-06, No Iterations 2
GAMG:  Solving for p, Initial residual = 0.0456761, Final residual = 0.000349755, No Iterations 5
GAMG:  Solving for p, Initial residual = 0.0106647, Final residual = 0.000100329, No Iterations 14
GAMG:  Solving for p, Initial residual = 0.00545168, Final residual = 5.23787e-05, No Iterations 10
time step continuity errors : sum local = 5.58332e-07, global = -1.47814e-07, cumulative = -1.12669e-08
GAMG:  Solving for p, Initial residual = 0.00259315, Final residual = 2.40539e-05, No Iterations 7
GAMG:  Solving for p, Initial residual = 0.00134134, Final residual = 1.2877e-05, No Iterations 5
GAMG:  Solving for p, Initial residual = 0.000530803, Final residual = 8.92367e-07, No Iterations 27
time step continuity errors : sum local = 9.39752e-09, global = 2.80411e-09, cumulative = -8.46283e-09
DILUPBiCG:  Solving for omega, Initial residual = 0.00126486, Final residual = 7.54488e-07, No Iterations 1
DILUPBiCG:  Solving for k, Initial residual = 0.00363228, Final residual = 5.96383e-07, No Iterations 2
bounding k, min: 0 max: 0.000622848 average: 0.000154164
ExecutionTime = 15.65 s  ClockTime = 16 s

End

