/*---------------------------------------------------------------------------*\
| =========                 |                                                 |
| \\      /  F ield         | OpenFOAM: The Open Source CFD Toolbox           |
|  \\    /   O peration     | Version:  2.3.1                                 |
|   \\  /    A nd           | Web:      www.OpenFOAM.org                      |
|    \\/     M anipulation  |                                                 |
\*---------------------------------------------------------------------------*/
Build  : 2.3.1-262087cdf8db
Exec   : linearisedPimpleDyMFoam
Date   : Jun 05 2023
Time   : 19:31:54
Host   : "jcosson-VirtualBox"
PID    : 7345
Case   : /home/jcosson/workspace/henersj_shootingdata/calcs/moderate_deformed/primal/56_intervals_05-06-23/sweep47/interval52
nProcs : 1
sigFpe : Enabling floating point exception trapping (FOAM_SIGFPE).
fileModificationChecking : Monitoring run-time modified files using timeStampMaster
allowSystemOperations : Allowing user-supplied system call operations

// * * * * * * * * * * * * * * * * * * * * * * * * * * * * * * * * * * * * * //
Create time

Create mesh for time = 0.491

Selecting dynamicFvMesh dynamicMotionSolverFvMesh
Selecting motion solver: displacementLaplacian
Selecting motion diffusion: quadratic
Selecting motion diffusion: quadratic
Selecting motion diffusion: inverseDistance
Reading field linP

Reading field linU

starte createPhia.H

Reading/calculating face flux field linPhi

Adjungierte Interpolation durchgefuehrt

createPhia.H verlassen

setRefCell ausgefuehrt

No finite volume options present


PIMPLE: no residual control data found. Calculations will employ 3 corrector loops


Starting time loop

Time = 0.492

Reading field p

Reading field U

Read primal fluxes 

Reading primal face flux fields phi/meshPhi

Created primal fluxes 

Selecting incompressible transport model Newtonian
singlePhaseTransportModel gewaehlt 

Selecting turbulence model type RASModel
Selecting RAS turbulence model kOmegaSST
bounding k, min: 0 max: 0.000546776 average: 0.000146686
kOmegaSSTCoeffs
{
    alphaK1         0.85034;
    alphaK2         1;
    alphaOmega1     0.5;
    alphaOmega2     0.85616;
    gamma1          0.5532;
    gamma2          0.4403;
    beta1           0.075;
    beta2           0.0828;
    betaStar        0.09;
    a1              0.31;
    c1              10;
    Cmu             0.09;
    b1              1;
    F3              false;
}

autoPtr ausgefuehrt

Reading/calculating face velocity Uf

Init adjoint face velocity linUf

Courant Number mean: 0.10949 max: 0.236629
Adjoint Courant Number mean: 0.000192693 max: 0.00189298
GAMG:  Solving for cellDisplacementx, Initial residual = 0, Final residual = 0, No Iterations 0
GAMG:  Solving for cellDisplacementy, Initial residual = 0, Final residual = 0, No Iterations 0
GAMG:  Solving for cellDisplacementz, Initial residual = 0, Final residual = 0, No Iterations 0
PIMPLE: iteration 1
DILUPBiCG:  Solving for linUx, Initial residual = 0.0102238, Final residual = 2.76986e-05, No Iterations 1
DILUPBiCG:  Solving for linUy, Initial residual = 0.0216192, Final residual = 3.27496e-05, No Iterations 1
DILUPBiCG:  Solving for linUz, Initial residual = 0.0470566, Final residual = 9.14155e-05, No Iterations 1
GAMG:  Solving for linP, Initial residual = 1, Final residual = 0.0063194, No Iterations 3
GAMG:  Solving for linP, Initial residual = 0.0403439, Final residual = 0.000208518, No Iterations 5
GAMG:  Solving for linP, Initial residual = 0.0144565, Final residual = 0.000136553, No Iterations 3
Adjoint continuity errors : sum local = 7.30322e-09, global = 9.09423e-12, cumulative = 9.09423e-12
GAMG:  Solving for linP, Initial residual = 0.0235735, Final residual = 0.000146888, No Iterations 4
GAMG:  Solving for linP, Initial residual = 0.00709732, Final residual = 5.65353e-05, No Iterations 4
GAMG:  Solving for linP, Initial residual = 0.00266951, Final residual = 1.93806e-05, No Iterations 4
Adjoint continuity errors : sum local = 1.00937e-09, global = 1.34943e-11, cumulative = 2.25886e-11
PIMPLE: iteration 2
DILUPBiCG:  Solving for linUx, Initial residual = 0.00121417, Final residual = 7.25049e-06, No Iterations 1
DILUPBiCG:  Solving for linUy, Initial residual = 0.0028187, Final residual = 6.60537e-06, No Iterations 1
DILUPBiCG:  Solving for linUz, Initial residual = 0.00399405, Final residual = 7.53353e-06, No Iterations 1
GAMG:  Solving for linP, Initial residual = 0.0293404, Final residual = 0.000176164, No Iterations 3
GAMG:  Solving for linP, Initial residual = 0.0046398, Final residual = 2.69081e-05, No Iterations 4
GAMG:  Solving for linP, Initial residual = 0.00149347, Final residual = 6.93442e-06, No Iterations 4
Adjoint continuity errors : sum local = 3.66258e-10, global = -6.27852e-11, cumulative = -4.01966e-11
GAMG:  Solving for linP, Initial residual = 0.00152018, Final residual = 7.72638e-06, No Iterations 4
GAMG:  Solving for linP, Initial residual = 0.000588713, Final residual = 5.45488e-06, No Iterations 3
GAMG:  Solving for linP, Initial residual = 0.00021303, Final residual = 1.33075e-06, No Iterations 4
Adjoint continuity errors : sum local = 7.02916e-11, global = -3.19578e-12, cumulative = -4.33924e-11
PIMPLE: iteration 3
DILUPBiCG:  Solving for linUx, Initial residual = 0.000109654, Final residual = 6.20329e-07, No Iterations 1
DILUPBiCG:  Solving for linUy, Initial residual = 0.000216005, Final residual = 1.18774e-06, No Iterations 1
DILUPBiCG:  Solving for linUz, Initial residual = 0.00026207, Final residual = 1.91933e-06, No Iterations 1
GAMG:  Solving for linP, Initial residual = 0.0354665, Final residual = 0.000311206, No Iterations 2
GAMG:  Solving for linP, Initial residual = 0.00293703, Final residual = 2.14673e-05, No Iterations 4
GAMG:  Solving for linP, Initial residual = 0.00115157, Final residual = 7.8467e-06, No Iterations 4
Adjoint continuity errors : sum local = 4.32815e-10, global = 7.654e-11, cumulative = 3.31475e-11
GAMG:  Solving for linP, Initial residual = 0.00108576, Final residual = 4.04279e-06, No Iterations 4
GAMG:  Solving for linP, Initial residual = 0.000274679, Final residual = 1.49698e-06, No Iterations 4
GAMG:  Solving for linP, Initial residual = 0.000110584, Final residual = 6.2402e-07, No Iterations 4
Adjoint continuity errors : sum local = 3.44478e-11, global = -3.76154e-12, cumulative = 2.9386e-11
ExecutionTime = 7.26 s  ClockTime = 7 s

Time = 0.493

Reading field p

Reading field U

Read primal fluxes 

Reading primal face flux fields phi/meshPhi

Created primal fluxes 

Selecting incompressible transport model Newtonian
singlePhaseTransportModel gewaehlt 

Selecting turbulence model type RASModel
Selecting RAS turbulence model kOmegaSST
bounding k, min: 0 max: 0.000539064 average: 0.000145958
kOmegaSSTCoeffs
{
    alphaK1         0.85034;
    alphaK2         1;
    alphaOmega1     0.5;
    alphaOmega2     0.85616;
    gamma1          0.5532;
    gamma2          0.4403;
    beta1           0.075;
    beta2           0.0828;
    betaStar        0.09;
    a1              0.31;
    c1              10;
    Cmu             0.09;
    b1              1;
    F3              false;
}

autoPtr ausgefuehrt

Reading/calculating face velocity Uf

Init adjoint face velocity linUf

Courant Number mean: 0.106907 max: 0.231296
Adjoint Courant Number mean: 0.00018978 max: 0.00190516
GAMG:  Solving for cellDisplacementx, Initial residual = 0, Final residual = 0, No Iterations 0
GAMG:  Solving for cellDisplacementy, Initial residual = 0, Final residual = 0, No Iterations 0
GAMG:  Solving for cellDisplacementz, Initial residual = 0, Final residual = 0, No Iterations 0
PIMPLE: iteration 1
DILUPBiCG:  Solving for linUx, Initial residual = 0.00981904, Final residual = 2.11005e-05, No Iterations 1
DILUPBiCG:  Solving for linUy, Initial residual = 0.0236004, Final residual = 3.29336e-05, No Iterations 1
DILUPBiCG:  Solving for linUz, Initial residual = 0.0323039, Final residual = 4.73253e-05, No Iterations 1
GAMG:  Solving for linP, Initial residual = 0.2878, Final residual = 0.00128687, No Iterations 3
GAMG:  Solving for linP, Initial residual = 0.0225332, Final residual = 0.000146197, No Iterations 4
GAMG:  Solving for linP, Initial residual = 0.00610883, Final residual = 3.07056e-05, No Iterations 4
Adjoint continuity errors : sum local = 1.94752e-09, global = -4.45786e-10, cumulative = -4.164e-10
GAMG:  Solving for linP, Initial residual = 0.00873525, Final residual = 4.30812e-05, No Iterations 4
GAMG:  Solving for linP, Initial residual = 0.0027241, Final residual = 2.59444e-05, No Iterations 3
GAMG:  Solving for linP, Initial residual = 0.000848513, Final residual = 4.43835e-06, No Iterations 4
Adjoint continuity errors : sum local = 2.80788e-10, global = -5.43757e-12, cumulative = -4.21838e-10
PIMPLE: iteration 2
DILUPBiCG:  Solving for linUx, Initial residual = 0.000786174, Final residual = 3.29672e-06, No Iterations 1
DILUPBiCG:  Solving for linUy, Initial residual = 0.00154612, Final residual = 2.54792e-05, No Iterations 1
DILUPBiCG:  Solving for linUz, Initial residual = 0.00175585, Final residual = 4.71342e-06, No Iterations 1
GAMG:  Solving for linP, Initial residual = 0.0141902, Final residual = 5.73354e-05, No Iterations 3
GAMG:  Solving for linP, Initial residual = 0.00148572, Final residual = 8.62238e-06, No Iterations 4
GAMG:  Solving for linP, Initial residual = 0.000554799, Final residual = 3.5906e-06, No Iterations 4
Adjoint continuity errors : sum local = 2.30135e-10, global = -5.61901e-11, cumulative = -4.78028e-10
GAMG:  Solving for linP, Initial residual = 0.00053914, Final residual = 3.13891e-06, No Iterations 4
GAMG:  Solving for linP, Initial residual = 0.000175494, Final residual = 1.37616e-06, No Iterations 4
GAMG:  Solving for linP, Initial residual = 7.27258e-05, Final residual = 5.10848e-07, No Iterations 4
Adjoint continuity errors : sum local = 3.27387e-11, global = -4.5356e-12, cumulative = -4.82563e-10
PIMPLE: iteration 3
DILUPBiCG:  Solving for linUx, Initial residual = 9.0909e-05, Final residual = 5.15401e-07, No Iterations 1
DILUPBiCG:  Solving for linUy, Initial residual = 0.000169685, Final residual = 7.85392e-07, No Iterations 1
DILUPBiCG:  Solving for linUz, Initial residual = 0.000204542, Final residual = 1.06269e-06, No Iterations 1
GAMG:  Solving for linP, Initial residual = 0.042922, Final residual = 0.000392281, No Iterations 2
GAMG:  Solving for linP, Initial residual = 0.00262054, Final residual = 1.80114e-05, No Iterations 6
GAMG:  Solving for linP, Initial residual = 0.00102245, Final residual = 9.68734e-06, No Iterations 4
Adjoint continuity errors : sum local = 6.39387e-10, global = 5.83746e-11, cumulative = -4.24189e-10
GAMG:  Solving for linP, Initial residual = 0.00110237, Final residual = 7.93204e-06, No Iterations 3
GAMG:  Solving for linP, Initial residual = 0.000247851, Final residual = 7.91799e-07, No Iterations 5
GAMG:  Solving for linP, Initial residual = 0.000101864, Final residual = 9.63332e-07, No Iterations 3
Adjoint continuity errors : sum local = 6.36636e-11, global = 3.33533e-13, cumulative = -4.23855e-10
ExecutionTime = 12.23 s  ClockTime = 12 s

End

