/*---------------------------------------------------------------------------*\
| =========                 |                                                 |
| \\      /  F ield         | OpenFOAM: The Open Source CFD Toolbox           |
|  \\    /   O peration     | Version:  2.3.1                                 |
|   \\  /    A nd           | Web:      www.OpenFOAM.org                      |
|    \\/     M anipulation  |                                                 |
\*---------------------------------------------------------------------------*/
Build  : 2.3.1-262087cdf8db
Exec   : linearisedPimpleDyMFoam
Date   : Jun 06 2023
Time   : 10:45:47
Host   : "jcosson-VirtualBox"
PID    : 7099
Case   : /home/jcosson/workspace/henersj_shootingdata/calcs/moderate_deformed/primal/28_intervals_05-06-23/sweep6/interval13
nProcs : 1
sigFpe : Enabling floating point exception trapping (FOAM_SIGFPE).
fileModificationChecking : Monitoring run-time modified files using timeStampMaster
allowSystemOperations : Allowing user-supplied system call operations

// * * * * * * * * * * * * * * * * * * * * * * * * * * * * * * * * * * * * * //
Create time

Create mesh for time = 0.443

Selecting dynamicFvMesh dynamicMotionSolverFvMesh
Selecting motion solver: displacementLaplacian
Selecting motion diffusion: quadratic
Selecting motion diffusion: quadratic
Selecting motion diffusion: inverseDistance
Reading field linP

Reading field linU

starte createPhia.H

Reading/calculating face flux field linPhi

Adjungierte Interpolation durchgefuehrt

createPhia.H verlassen

setRefCell ausgefuehrt

No finite volume options present


PIMPLE: no residual control data found. Calculations will employ 3 corrector loops


Starting time loop

Time = 0.444

Reading field p

Reading field U

Read primal fluxes 

Reading primal face flux fields phi/meshPhi

Created primal fluxes 

Selecting incompressible transport model Newtonian
singlePhaseTransportModel gewaehlt 

Selecting turbulence model type RASModel
Selecting RAS turbulence model kOmegaSST
kOmegaSSTCoeffs
{
    alphaK1         0.85034;
    alphaK2         1;
    alphaOmega1     0.5;
    alphaOmega2     0.85616;
    gamma1          0.5532;
    gamma2          0.4403;
    beta1           0.075;
    beta2           0.0828;
    betaStar        0.09;
    a1              0.31;
    c1              10;
    Cmu             0.09;
    b1              1;
    F3              false;
}

autoPtr ausgefuehrt

Reading/calculating face velocity Uf

Init adjoint face velocity linUf

Courant Number mean: 0.273257 max: 0.602221
Adjoint Courant Number mean: 0.000729605 max: 0.0218851
GAMG:  Solving for cellDisplacementx, Initial residual = 0, Final residual = 0, No Iterations 0
GAMG:  Solving for cellDisplacementy, Initial residual = 0, Final residual = 0, No Iterations 0
GAMG:  Solving for cellDisplacementz, Initial residual = 0, Final residual = 0, No Iterations 0
PIMPLE: iteration 1
DILUPBiCG:  Solving for linUx, Initial residual = 0.0560259, Final residual = 0.000149332, No Iterations 1
DILUPBiCG:  Solving for linUy, Initial residual = 0.105957, Final residual = 0.000230895, No Iterations 1
DILUPBiCG:  Solving for linUz, Initial residual = 0.133252, Final residual = 0.000313265, No Iterations 1
GAMG:  Solving for linP, Initial residual = 1, Final residual = 0.00816821, No Iterations 2
GAMG:  Solving for linP, Initial residual = 0.00987617, Final residual = 6.2683e-05, No Iterations 4
GAMG:  Solving for linP, Initial residual = 0.00321841, Final residual = 2.9345e-05, No Iterations 4
Adjoint continuity errors : sum local = 4.57898e-08, global = -7.36358e-09, cumulative = -7.36358e-09
GAMG:  Solving for linP, Initial residual = 0.0382238, Final residual = 0.0001535, No Iterations 3
GAMG:  Solving for linP, Initial residual = 0.00296918, Final residual = 1.86045e-05, No Iterations 4
GAMG:  Solving for linP, Initial residual = 0.000844409, Final residual = 6.17151e-06, No Iterations 4
Adjoint continuity errors : sum local = 9.20703e-09, global = -1.11672e-09, cumulative = -8.4803e-09
PIMPLE: iteration 2
DILUPBiCG:  Solving for linUx, Initial residual = 0.00810018, Final residual = 2.64329e-05, No Iterations 1
DILUPBiCG:  Solving for linUy, Initial residual = 0.0165681, Final residual = 3.59314e-05, No Iterations 1
DILUPBiCG:  Solving for linUz, Initial residual = 0.0163493, Final residual = 3.61463e-05, No Iterations 1
GAMG:  Solving for linP, Initial residual = 0.054541, Final residual = 0.000454847, No Iterations 2
GAMG:  Solving for linP, Initial residual = 0.00191837, Final residual = 1.11666e-05, No Iterations 4
GAMG:  Solving for linP, Initial residual = 0.00056706, Final residual = 4.27788e-06, No Iterations 4
Adjoint continuity errors : sum local = 6.49173e-09, global = 5.16035e-10, cumulative = -7.96426e-09
GAMG:  Solving for linP, Initial residual = 0.00357739, Final residual = 1.27256e-05, No Iterations 3
GAMG:  Solving for linP, Initial residual = 0.000346141, Final residual = 3.3538e-06, No Iterations 3
GAMG:  Solving for linP, Initial residual = 9.9479e-05, Final residual = 5.61769e-07, No Iterations 4
Adjoint continuity errors : sum local = 8.52671e-10, global = -1.18065e-10, cumulative = -8.08233e-09
PIMPLE: iteration 3
DILUPBiCG:  Solving for linUx, Initial residual = 0.00159592, Final residual = 9.40035e-08, No Iterations 2
DILUPBiCG:  Solving for linUy, Initial residual = 0.00367444, Final residual = 8.47665e-08, No Iterations 2
DILUPBiCG:  Solving for linUz, Initial residual = 0.00306198, Final residual = 1.88732e-07, No Iterations 2
GAMG:  Solving for linP, Initial residual = 0.0449908, Final residual = 0.000370397, No Iterations 2
GAMG:  Solving for linP, Initial residual = 0.00129608, Final residual = 1.2313e-05, No Iterations 3
GAMG:  Solving for linP, Initial residual = 0.000417395, Final residual = 1.49349e-06, No Iterations 4
Adjoint continuity errors : sum local = 2.31745e-09, global = 4.38923e-10, cumulative = -7.6434e-09
GAMG:  Solving for linP, Initial residual = 0.00253834, Final residual = 7.82457e-06, No Iterations 3
GAMG:  Solving for linP, Initial residual = 0.00017945, Final residual = 1.51818e-06, No Iterations 3
GAMG:  Solving for linP, Initial residual = 6.03311e-05, Final residual = 8.17279e-07, No Iterations 3
Adjoint continuity errors : sum local = 1.27224e-09, global = -1.05659e-10, cumulative = -7.74906e-09
ExecutionTime = 11.61 s  ClockTime = 11 s

Time = 0.445

Reading field p

Reading field U

Read primal fluxes 

Reading primal face flux fields phi/meshPhi

Created primal fluxes 

Selecting incompressible transport model Newtonian
singlePhaseTransportModel gewaehlt 

Selecting turbulence model type RASModel
Selecting RAS turbulence model kOmegaSST
kOmegaSSTCoeffs
{
    alphaK1         0.85034;
    alphaK2         1;
    alphaOmega1     0.5;
    alphaOmega2     0.85616;
    gamma1          0.5532;
    gamma2          0.4403;
    beta1           0.075;
    beta2           0.0828;
    betaStar        0.09;
    a1              0.31;
    c1              10;
    Cmu             0.09;
    b1              1;
    F3              false;
}

autoPtr ausgefuehrt

Reading/calculating face velocity Uf

Init adjoint face velocity linUf

Courant Number mean: 0.275232 max: 0.606443
Adjoint Courant Number mean: 0.000702273 max: 0.0902485
GAMG:  Solving for cellDisplacementx, Initial residual = 0, Final residual = 0, No Iterations 0
GAMG:  Solving for cellDisplacementy, Initial residual = 0, Final residual = 0, No Iterations 0
GAMG:  Solving for cellDisplacementz, Initial residual = 0, Final residual = 0, No Iterations 0
PIMPLE: iteration 1
DILUPBiCG:  Solving for linUx, Initial residual = 0.0478832, Final residual = 0.000135669, No Iterations 1
DILUPBiCG:  Solving for linUy, Initial residual = 0.0882211, Final residual = 0.000205854, No Iterations 1
DILUPBiCG:  Solving for linUz, Initial residual = 0.100446, Final residual = 0.00020731, No Iterations 1
GAMG:  Solving for linP, Initial residual = 0.283432, Final residual = 0.00249021, No Iterations 2
GAMG:  Solving for linP, Initial residual = 0.00460869, Final residual = 3.59705e-05, No Iterations 4
GAMG:  Solving for linP, Initial residual = 0.00138556, Final residual = 9.07967e-06, No Iterations 4
Adjoint continuity errors : sum local = 2.13446e-08, global = -6.29311e-09, cumulative = -1.40422e-08
GAMG:  Solving for linP, Initial residual = 0.0117034, Final residual = 4.79254e-05, No Iterations 3
GAMG:  Solving for linP, Initial residual = 0.000846379, Final residual = 6.08934e-06, No Iterations 4
GAMG:  Solving for linP, Initial residual = 0.000238668, Final residual = 1.70778e-06, No Iterations 4
Adjoint continuity errors : sum local = 3.96828e-09, global = -1.21434e-10, cumulative = -1.41636e-08
PIMPLE: iteration 2
DILUPBiCG:  Solving for linUx, Initial residual = 0.00699093, Final residual = 2.25059e-05, No Iterations 1
DILUPBiCG:  Solving for linUy, Initial residual = 0.013981, Final residual = 5.86655e-05, No Iterations 1
DILUPBiCG:  Solving for linUz, Initial residual = 0.0134938, Final residual = 3.12699e-05, No Iterations 1
GAMG:  Solving for linP, Initial residual = 0.0294848, Final residual = 0.000284639, No Iterations 2
GAMG:  Solving for linP, Initial residual = 0.00087873, Final residual = 5.54658e-06, No Iterations 4
GAMG:  Solving for linP, Initial residual = 0.000234149, Final residual = 1.19671e-06, No Iterations 4
Adjoint continuity errors : sum local = 2.79152e-09, global = -9.04726e-10, cumulative = -1.50683e-08
GAMG:  Solving for linP, Initial residual = 0.00180411, Final residual = 5.86994e-06, No Iterations 3
GAMG:  Solving for linP, Initial residual = 0.000135329, Final residual = 6.30392e-07, No Iterations 4
GAMG:  Solving for linP, Initial residual = 3.66444e-05, Final residual = 8.33959e-07, No Iterations 2
Adjoint continuity errors : sum local = 1.94605e-09, global = 1.20292e-10, cumulative = -1.4948e-08
PIMPLE: iteration 3
DILUPBiCG:  Solving for linUx, Initial residual = 0.00142464, Final residual = 6.39098e-06, No Iterations 1
DILUPBiCG:  Solving for linUy, Initial residual = 0.00300993, Final residual = 6.12569e-08, No Iterations 2
DILUPBiCG:  Solving for linUz, Initial residual = 0.00262374, Final residual = 9.59232e-06, No Iterations 1
GAMG:  Solving for linP, Initial residual = 0.0454837, Final residual = 0.000130366, No Iterations 3
GAMG:  Solving for linP, Initial residual = 0.000773354, Final residual = 7.55925e-06, No Iterations 3
GAMG:  Solving for linP, Initial residual = 0.000205169, Final residual = 1.11268e-06, No Iterations 4
Adjoint continuity errors : sum local = 2.64067e-09, global = 1.09978e-11, cumulative = -1.4937e-08
GAMG:  Solving for linP, Initial residual = 0.00222648, Final residual = 7.28425e-06, No Iterations 3
GAMG:  Solving for linP, Initial residual = 0.000115461, Final residual = 1.04693e-06, No Iterations 3
GAMG:  Solving for linP, Initial residual = 3.48395e-05, Final residual = 4.52279e-07, No Iterations 3
Adjoint continuity errors : sum local = 1.07603e-09, global = -5.88553e-11, cumulative = -1.49959e-08
ExecutionTime = 20.76 s  ClockTime = 21 s

Time = 0.446

Reading field p

Reading field U

Read primal fluxes 

Reading primal face flux fields phi/meshPhi

Created primal fluxes 

Selecting incompressible transport model Newtonian
singlePhaseTransportModel gewaehlt 

Selecting turbulence model type RASModel
Selecting RAS turbulence model kOmegaSST
kOmegaSSTCoeffs
{
    alphaK1         0.85034;
    alphaK2         1;
    alphaOmega1     0.5;
    alphaOmega2     0.85616;
    gamma1          0.5532;
    gamma2          0.4403;
    beta1           0.075;
    beta2           0.0828;
    betaStar        0.09;
    a1              0.31;
    c1              10;
    Cmu             0.09;
    b1              1;
    F3              false;
}

autoPtr ausgefuehrt

Reading/calculating face velocity Uf

Init adjoint face velocity linUf

Courant Number mean: 0.276865 max: 0.609835
Adjoint Courant Number mean: 0.000703188 max: 0.134219
GAMG:  Solving for cellDisplacementx, Initial residual = 0, Final residual = 0, No Iterations 0
GAMG:  Solving for cellDisplacementy, Initial residual = 0, Final residual = 0, No Iterations 0
GAMG:  Solving for cellDisplacementz, Initial residual = 0, Final residual = 0, No Iterations 0
PIMPLE: iteration 1
DILUPBiCG:  Solving for linUx, Initial residual = 0.0434735, Final residual = 0.000116635, No Iterations 1
DILUPBiCG:  Solving for linUy, Initial residual = 0.0741733, Final residual = 0.000170401, No Iterations 1
DILUPBiCG:  Solving for linUz, Initial residual = 0.0784798, Final residual = 0.000159195, No Iterations 1
GAMG:  Solving for linP, Initial residual = 0.163508, Final residual = 0.000631823, No Iterations 3
GAMG:  Solving for linP, Initial residual = 0.00188006, Final residual = 1.2099e-05, No Iterations 4
GAMG:  Solving for linP, Initial residual = 0.000494478, Final residual = 2.00762e-06, No Iterations 4
Adjoint continuity errors : sum local = 5.90414e-09, global = 9.34017e-10, cumulative = -1.40619e-08
GAMG:  Solving for linP, Initial residual = 0.00536737, Final residual = 5.20547e-05, No Iterations 2
GAMG:  Solving for linP, Initial residual = 0.000250352, Final residual = 2.27934e-06, No Iterations 4
GAMG:  Solving for linP, Initial residual = 7.99679e-05, Final residual = 4.75374e-07, No Iterations 4
Adjoint continuity errors : sum local = 1.39083e-09, global = -3.84395e-10, cumulative = -1.44463e-08
PIMPLE: iteration 2
DILUPBiCG:  Solving for linUx, Initial residual = 0.00667656, Final residual = 1.92451e-05, No Iterations 1
DILUPBiCG:  Solving for linUy, Initial residual = 0.0122841, Final residual = 3.19725e-05, No Iterations 1
DILUPBiCG:  Solving for linUz, Initial residual = 0.0122003, Final residual = 3.39075e-05, No Iterations 1
GAMG:  Solving for linP, Initial residual = 0.0208864, Final residual = 6.11174e-05, No Iterations 3
GAMG:  Solving for linP, Initial residual = 0.000560775, Final residual = 2.79425e-06, No Iterations 4
GAMG:  Solving for linP, Initial residual = 0.000136082, Final residual = 1.07078e-06, No Iterations 4
Adjoint continuity errors : sum local = 3.12873e-09, global = 3.83992e-10, cumulative = -1.40623e-08
GAMG:  Solving for linP, Initial residual = 0.00127311, Final residual = 4.12864e-06, No Iterations 3
GAMG:  Solving for linP, Initial residual = 8.94681e-05, Final residual = 9.26094e-07, No Iterations 3
GAMG:  Solving for linP, Initial residual = 2.38375e-05, Final residual = 5.72871e-07, No Iterations 2
Adjoint continuity errors : sum local = 1.67459e-09, global = -5.1993e-12, cumulative = -1.40675e-08
PIMPLE: iteration 3
DILUPBiCG:  Solving for linUx, Initial residual = 0.0013257, Final residual = 5.29242e-06, No Iterations 1
DILUPBiCG:  Solving for linUy, Initial residual = 0.00254057, Final residual = 9.2703e-06, No Iterations 1
DILUPBiCG:  Solving for linUz, Initial residual = 0.00227325, Final residual = 9.28323e-06, No Iterations 1
GAMG:  Solving for linP, Initial residual = 0.0457795, Final residual = 0.00016164, No Iterations 3
GAMG:  Solving for linP, Initial residual = 0.000691078, Final residual = 3.08299e-06, No Iterations 4
GAMG:  Solving for linP, Initial residual = 0.000175536, Final residual = 1.44269e-06, No Iterations 3
Adjoint continuity errors : sum local = 4.28023e-09, global = -1.64877e-10, cumulative = -1.42324e-08
GAMG:  Solving for linP, Initial residual = 0.00200504, Final residual = 6.80038e-06, No Iterations 3
GAMG:  Solving for linP, Initial residual = 9.52317e-05, Final residual = 7.89345e-07, No Iterations 4
GAMG:  Solving for linP, Initial residual = 2.83542e-05, Final residual = 8.01288e-07, No Iterations 2
Adjoint continuity errors : sum local = 2.38211e-09, global = -6.77285e-11, cumulative = -1.43001e-08
ExecutionTime = 25.52 s  ClockTime = 25 s

End

