/*---------------------------------------------------------------------------*\
| =========                 |                                                 |
| \\      /  F ield         | OpenFOAM: The Open Source CFD Toolbox           |
|  \\    /   O peration     | Version:  2.3.1                                 |
|   \\  /    A nd           | Web:      www.OpenFOAM.org                      |
|    \\/     M anipulation  |                                                 |
\*---------------------------------------------------------------------------*/
Build  : 2.3.1-262087cdf8db
Exec   : pimpleDyMFoam
Date   : Jun 04 2023
Time   : 16:53:35
Host   : "jcosson-VirtualBox"
PID    : 3954
Case   : /home/jcosson/workspace/henersj_shootingdata/calcs/moderate_deformed/primal/10_intervals_04-06-23/sweep3/interval6
nProcs : 1
sigFpe : Enabling floating point exception trapping (FOAM_SIGFPE).
fileModificationChecking : Monitoring run-time modified files using timeStampMaster
allowSystemOperations : Allowing user-supplied system call operations

// * * * * * * * * * * * * * * * * * * * * * * * * * * * * * * * * * * * * * //
Create time

Create mesh for time = 0.45

Selecting dynamicFvMesh dynamicMotionSolverFvMesh
Selecting motion solver: displacementLaplacian
Selecting motion diffusion: quadratic
Selecting motion diffusion: quadratic
Selecting motion diffusion: inverseDistance

PIMPLE: no residual control data found. Calculations will employ 3 corrector loops

Reading field p

Reading field U

Reading/calculating face flux field phi

Selecting incompressible transport model Newtonian
Selecting turbulence model type RASModel
Selecting RAS turbulence model kOmegaSST
kOmegaSSTCoeffs
{
    alphaK1         0.85034;
    alphaK2         1;
    alphaOmega1     0.5;
    alphaOmega2     0.85616;
    gamma1          0.5532;
    gamma2          0.4403;
    beta1           0.075;
    beta2           0.0828;
    betaStar        0.09;
    a1              0.31;
    c1              10;
    Cmu             0.09;
    b1              1;
    F3              false;
}

Reading/calculating face velocity Uf

No finite volume options present

Courant Number mean: 0.279748 max: 0.618144

Starting time loop

Courant Number mean: 0.279748 max: 0.618144
Time = 0.451

GAMG:  Solving for cellDisplacementx, Initial residual = 0, Final residual = 0, No Iterations 0
GAMG:  Solving for cellDisplacementy, Initial residual = 0, Final residual = 0, No Iterations 0
GAMG:  Solving for cellDisplacementz, Initial residual = 0, Final residual = 0, No Iterations 0
PIMPLE: iteration 1
DILUPBiCG:  Solving for Ux, Initial residual = 0.00171243, Final residual = 2.31337e-05, No Iterations 1
DILUPBiCG:  Solving for Uy, Initial residual = 0.000384606, Final residual = 4.22563e-06, No Iterations 1
DILUPBiCG:  Solving for Uz, Initial residual = 0.0132061, Final residual = 3.35725e-05, No Iterations 1
GAMG:  Solving for p, Initial residual = 0.212035, Final residual = 0.0014589, No Iterations 4
GAMG:  Solving for p, Initial residual = 0.0469506, Final residual = 0.000415641, No Iterations 20
GAMG:  Solving for p, Initial residual = 0.0328355, Final residual = 0.000316268, No Iterations 4
time step continuity errors : sum local = 6.06483e-07, global = 1.39901e-07, cumulative = 1.39901e-07
GAMG:  Solving for p, Initial residual = 0.128986, Final residual = 0.000803746, No Iterations 4
GAMG:  Solving for p, Initial residual = 0.023421, Final residual = 0.000213276, No Iterations 18
GAMG:  Solving for p, Initial residual = 0.0155366, Final residual = 0.00014427, No Iterations 4
time step continuity errors : sum local = 2.74027e-07, global = 6.98467e-08, cumulative = 2.09747e-07
PIMPLE: iteration 2
DILUPBiCG:  Solving for Ux, Initial residual = 0.000187348, Final residual = 1.76596e-06, No Iterations 1
DILUPBiCG:  Solving for Uy, Initial residual = 7.05765e-05, Final residual = 3.399e-07, No Iterations 1
DILUPBiCG:  Solving for Uz, Initial residual = 0.00403298, Final residual = 1.70192e-05, No Iterations 1
GAMG:  Solving for p, Initial residual = 0.131897, Final residual = 0.000772505, No Iterations 4
GAMG:  Solving for p, Initial residual = 0.0239411, Final residual = 0.00020882, No Iterations 18
GAMG:  Solving for p, Initial residual = 0.0152868, Final residual = 0.000137767, No Iterations 4
time step continuity errors : sum local = 2.55676e-07, global = 6.59261e-08, cumulative = 2.75673e-07
GAMG:  Solving for p, Initial residual = 0.0646787, Final residual = 0.000358542, No Iterations 4
GAMG:  Solving for p, Initial residual = 0.0125829, Final residual = 0.000109197, No Iterations 14
GAMG:  Solving for p, Initial residual = 0.00694011, Final residual = 5.63801e-05, No Iterations 4
time step continuity errors : sum local = 1.04133e-07, global = 3.7437e-08, cumulative = 3.13111e-07
PIMPLE: iteration 3
DILUPBiCG:  Solving for Ux, Initial residual = 0.000284039, Final residual = 2.12195e-06, No Iterations 1
DILUPBiCG:  Solving for Uy, Initial residual = 6.00643e-05, Final residual = 7.22598e-07, No Iterations 1
DILUPBiCG:  Solving for Uz, Initial residual = 0.00168075, Final residual = 3.12899e-06, No Iterations 2
GAMG:  Solving for p, Initial residual = 0.123705, Final residual = 0.000450402, No Iterations 4
GAMG:  Solving for p, Initial residual = 0.0280234, Final residual = 0.000248297, No Iterations 4
GAMG:  Solving for p, Initial residual = 0.0116489, Final residual = 9.41817e-05, No Iterations 10
time step continuity errors : sum local = 1.63122e-07, global = 4.32164e-08, cumulative = 3.56327e-07
GAMG:  Solving for p, Initial residual = 0.0100695, Final residual = 3.68105e-05, No Iterations 5
GAMG:  Solving for p, Initial residual = 0.0049063, Final residual = 2.71807e-05, No Iterations 4
GAMG:  Solving for p, Initial residual = 0.00165492, Final residual = 6.32588e-07, No Iterations 11
time step continuity errors : sum local = 1.1052e-09, global = -1.71816e-10, cumulative = 3.56155e-07
DILUPBiCG:  Solving for omega, Initial residual = 0.00108553, Final residual = 1.51423e-06, No Iterations 1
DILUPBiCG:  Solving for k, Initial residual = 0.00519919, Final residual = 1.18787e-06, No Iterations 2
ExecutionTime = 9.9 s  ClockTime = 10 s

Courant Number mean: 0.279591 max: 0.617245
Time = 0.452

GAMG:  Solving for cellDisplacementx, Initial residual = 0, Final residual = 0, No Iterations 0
GAMG:  Solving for cellDisplacementy, Initial residual = 0, Final residual = 0, No Iterations 0
GAMG:  Solving for cellDisplacementz, Initial residual = 0, Final residual = 0, No Iterations 0
PIMPLE: iteration 1
DILUPBiCG:  Solving for Ux, Initial residual = 0.00126534, Final residual = 6.11248e-06, No Iterations 1
DILUPBiCG:  Solving for Uy, Initial residual = 0.000334513, Final residual = 2.46876e-06, No Iterations 1
DILUPBiCG:  Solving for Uz, Initial residual = 0.0123366, Final residual = 3.23262e-05, No Iterations 1
GAMG:  Solving for p, Initial residual = 0.17411, Final residual = 0.00153126, No Iterations 10
GAMG:  Solving for p, Initial residual = 0.0390781, Final residual = 0.000377461, No Iterations 10
GAMG:  Solving for p, Initial residual = 0.015457, Final residual = 0.000143442, No Iterations 12
time step continuity errors : sum local = 3.50232e-07, global = 1.03876e-07, cumulative = 4.60031e-07
GAMG:  Solving for p, Initial residual = 0.0659776, Final residual = 0.000572764, No Iterations 8
GAMG:  Solving for p, Initial residual = 0.0193825, Final residual = 0.000178225, No Iterations 10
GAMG:  Solving for p, Initial residual = 0.00606365, Final residual = 5.60428e-05, No Iterations 14
time step continuity errors : sum local = 1.36252e-07, global = 4.23726e-08, cumulative = 5.02404e-07
PIMPLE: iteration 2
DILUPBiCG:  Solving for Ux, Initial residual = 0.000863081, Final residual = 4.41389e-06, No Iterations 1
DILUPBiCG:  Solving for Uy, Initial residual = 0.000173531, Final residual = 1.67884e-06, No Iterations 1
DILUPBiCG:  Solving for Uz, Initial residual = 0.00440224, Final residual = 1.41338e-05, No Iterations 1
GAMG:  Solving for p, Initial residual = 0.0661566, Final residual = 0.000510226, No Iterations 4
GAMG:  Solving for p, Initial residual = 0.0176529, Final residual = 0.000163125, No Iterations 10
GAMG:  Solving for p, Initial residual = 0.00662208, Final residual = 6.30616e-05, No Iterations 10
time step continuity errors : sum local = 1.42133e-07, global = 3.64955e-08, cumulative = 5.38899e-07
GAMG:  Solving for p, Initial residual = 0.0310944, Final residual = 0.00021021, No Iterations 4
GAMG:  Solving for p, Initial residual = 0.00873904, Final residual = 7.13319e-05, No Iterations 10
GAMG:  Solving for p, Initial residual = 0.00316557, Final residual = 2.73361e-05, No Iterations 10
time step continuity errors : sum local = 6.16999e-08, global = 1.5856e-08, cumulative = 5.54755e-07
PIMPLE: iteration 3
DILUPBiCG:  Solving for Ux, Initial residual = 0.000469202, Final residual = 9.3478e-08, No Iterations 2
DILUPBiCG:  Solving for Uy, Initial residual = 8.73183e-05, Final residual = 1.24215e-06, No Iterations 1
DILUPBiCG:  Solving for Uz, Initial residual = 0.0015474, Final residual = 9.20497e-07, No Iterations 2
GAMG:  Solving for p, Initial residual = 0.087203, Final residual = 0.000713816, No Iterations 3
GAMG:  Solving for p, Initial residual = 0.0206961, Final residual = 0.000153808, No Iterations 4
GAMG:  Solving for p, Initial residual = 0.00921821, Final residual = 6.73224e-05, No Iterations 4
time step continuity errors : sum local = 1.51926e-07, global = -3.52272e-08, cumulative = 5.19528e-07
GAMG:  Solving for p, Initial residual = 0.00680599, Final residual = 6.30573e-05, No Iterations 4
GAMG:  Solving for p, Initial residual = 0.00363753, Final residual = 2.12282e-05, No Iterations 4
GAMG:  Solving for p, Initial residual = 0.00125197, Final residual = 7.61799e-07, No Iterations 11
time step continuity errors : sum local = 1.71083e-09, global = 3.0631e-10, cumulative = 5.19834e-07
DILUPBiCG:  Solving for omega, Initial residual = 0.0010418, Final residual = 1.473e-06, No Iterations 1
DILUPBiCG:  Solving for k, Initial residual = 0.00499059, Final residual = 1.4337e-06, No Iterations 2
ExecutionTime = 19.21 s  ClockTime = 20 s

Courant Number mean: 0.279073 max: 0.615578
Time = 0.453

GAMG:  Solving for cellDisplacementx, Initial residual = 0, Final residual = 0, No Iterations 0
GAMG:  Solving for cellDisplacementy, Initial residual = 0, Final residual = 0, No Iterations 0
GAMG:  Solving for cellDisplacementz, Initial residual = 0, Final residual = 0, No Iterations 0
PIMPLE: iteration 1
DILUPBiCG:  Solving for Ux, Initial residual = 0.00377015, Final residual = 1.788e-05, No Iterations 1
DILUPBiCG:  Solving for Uy, Initial residual = 0.000692467, Final residual = 5.34639e-06, No Iterations 1
DILUPBiCG:  Solving for Uz, Initial residual = 0.0143648, Final residual = 3.69838e-05, No Iterations 1
GAMG:  Solving for p, Initial residual = 0.172152, Final residual = 0.00135342, No Iterations 10
GAMG:  Solving for p, Initial residual = 0.032843, Final residual = 0.000271839, No Iterations 12
GAMG:  Solving for p, Initial residual = 0.0116055, Final residual = 0.000104185, No Iterations 12
time step continuity errors : sum local = 3.21478e-07, global = 9.56987e-08, cumulative = 6.15533e-07
GAMG:  Solving for p, Initial residual = 0.0647782, Final residual = 0.000601475, No Iterations 6
GAMG:  Solving for p, Initial residual = 0.0157633, Final residual = 0.000132794, No Iterations 14
GAMG:  Solving for p, Initial residual = 0.00575426, Final residual = 4.98257e-05, No Iterations 12
time step continuity errors : sum local = 1.52531e-07, global = 4.57157e-08, cumulative = 6.61249e-07
PIMPLE: iteration 2
DILUPBiCG:  Solving for Ux, Initial residual = 0.00164106, Final residual = 1.59415e-05, No Iterations 1
DILUPBiCG:  Solving for Uy, Initial residual = 0.000296091, Final residual = 2.32574e-06, No Iterations 1
DILUPBiCG:  Solving for Uz, Initial residual = 0.00481092, Final residual = 1.48387e-05, No Iterations 1
GAMG:  Solving for p, Initial residual = 0.0653732, Final residual = 0.000302294, No Iterations 4
GAMG:  Solving for p, Initial residual = 0.0149322, Final residual = 0.000133082, No Iterations 10
GAMG:  Solving for p, Initial residual = 0.00605495, Final residual = 5.62718e-05, No Iterations 4
time step continuity errors : sum local = 1.54278e-07, global = 5.72929e-08, cumulative = 7.18541e-07
GAMG:  Solving for p, Initial residual = 0.031483, Final residual = 0.000296346, No Iterations 3
GAMG:  Solving for p, Initial residual = 0.00718711, Final residual = 6.74417e-05, No Iterations 9
GAMG:  Solving for p, Initial residual = 0.00296185, Final residual = 2.51303e-05, No Iterations 10
time step continuity errors : sum local = 6.92224e-08, global = 1.78779e-08, cumulative = 7.36419e-07
PIMPLE: iteration 3
DILUPBiCG:  Solving for Ux, Initial residual = 0.000670737, Final residual = 1.42787e-07, No Iterations 2
DILUPBiCG:  Solving for Uy, Initial residual = 0.000118377, Final residual = 2.06397e-06, No Iterations 1
DILUPBiCG:  Solving for Uz, Initial residual = 0.00154971, Final residual = 1.03603e-06, No Iterations 2
GAMG:  Solving for p, Initial residual = 0.0691898, Final residual = 0.000366904, No Iterations 4
GAMG:  Solving for p, Initial residual = 0.016227, Final residual = 0.000144323, No Iterations 4
GAMG:  Solving for p, Initial residual = 0.00733737, Final residual = 4.76805e-05, No Iterations 5
time step continuity errors : sum local = 1.35738e-07, global = 5.79229e-08, cumulative = 7.94342e-07
GAMG:  Solving for p, Initial residual = 0.00538017, Final residual = 2.81267e-05, No Iterations 6
GAMG:  Solving for p, Initial residual = 0.00296045, Final residual = 2.26577e-05, No Iterations 4
GAMG:  Solving for p, Initial residual = 0.00101989, Final residual = 9.49904e-07, No Iterations 24
time step continuity errors : sum local = 2.69103e-09, global = 8.31214e-10, cumulative = 7.95173e-07
DILUPBiCG:  Solving for omega, Initial residual = 0.000995959, Final residual = 1.42896e-06, No Iterations 1
DILUPBiCG:  Solving for k, Initial residual = 0.00480564, Final residual = 1.74917e-06, No Iterations 2
ExecutionTime = 27.89 s  ClockTime = 28 s

Courant Number mean: 0.278198 max: 0.614026
Time = 0.454

GAMG:  Solving for cellDisplacementx, Initial residual = 0, Final residual = 0, No Iterations 0
GAMG:  Solving for cellDisplacementy, Initial residual = 0, Final residual = 0, No Iterations 0
GAMG:  Solving for cellDisplacementz, Initial residual = 0, Final residual = 0, No Iterations 0
PIMPLE: iteration 1
DILUPBiCG:  Solving for Ux, Initial residual = 0.00637188, Final residual = 2.54192e-05, No Iterations 1
DILUPBiCG:  Solving for Uy, Initial residual = 0.00108239, Final residual = 4.10956e-06, No Iterations 1
DILUPBiCG:  Solving for Uz, Initial residual = 0.0156495, Final residual = 4.07308e-05, No Iterations 1
GAMG:  Solving for p, Initial residual = 0.168066, Final residual = 0.00165445, No Iterations 8
GAMG:  Solving for p, Initial residual = 0.028473, Final residual = 0.000267236, No Iterations 14
GAMG:  Solving for p, Initial residual = 0.0105406, Final residual = 0.000104405, No Iterations 12
time step continuity errors : sum local = 3.93425e-07, global = 1.17904e-07, cumulative = 9.13077e-07
GAMG:  Solving for p, Initial residual = 0.0638538, Final residual = 0.000561358, No Iterations 6
GAMG:  Solving for p, Initial residual = 0.0136435, Final residual = 0.000124699, No Iterations 14
GAMG:  Solving for p, Initial residual = 0.00537662, Final residual = 4.64121e-05, No Iterations 12
time step continuity errors : sum local = 1.73799e-07, global = 5.1825e-08, cumulative = 9.64902e-07
PIMPLE: iteration 2
DILUPBiCG:  Solving for Ux, Initial residual = 0.00242924, Final residual = 2.27194e-05, No Iterations 1
DILUPBiCG:  Solving for Uy, Initial residual = 0.000422185, Final residual = 2.73644e-06, No Iterations 1
DILUPBiCG:  Solving for Uz, Initial residual = 0.00481936, Final residual = 1.49562e-05, No Iterations 1
GAMG:  Solving for p, Initial residual = 0.0647717, Final residual = 0.000575911, No Iterations 3
GAMG:  Solving for p, Initial residual = 0.0131602, Final residual = 0.000122357, No Iterations 5
GAMG:  Solving for p, Initial residual = 0.00550603, Final residual = 4.39016e-05, No Iterations 8
time step continuity errors : sum local = 1.44067e-07, global = 2.98954e-08, cumulative = 9.94798e-07
GAMG:  Solving for p, Initial residual = 0.0315107, Final residual = 0.000272212, No Iterations 3
GAMG:  Solving for p, Initial residual = 0.00630432, Final residual = 5.34771e-05, No Iterations 5
GAMG:  Solving for p, Initial residual = 0.00268959, Final residual = 2.4593e-05, No Iterations 4
time step continuity errors : sum local = 8.12692e-08, global = 2.33768e-08, cumulative = 1.01817e-06
PIMPLE: iteration 3
DILUPBiCG:  Solving for Ux, Initial residual = 0.000860226, Final residual = 2.02205e-07, No Iterations 2
DILUPBiCG:  Solving for Uy, Initial residual = 0.000147739, Final residual = 2.89709e-06, No Iterations 1
DILUPBiCG:  Solving for Uz, Initial residual = 0.00201862, Final residual = 1.13215e-08, No Iterations 3
GAMG:  Solving for p, Initial residual = 0.0584848, Final residual = 0.000427224, No Iterations 4
GAMG:  Solving for p, Initial residual = 0.0140117, Final residual = 0.000135149, No Iterations 6
GAMG:  Solving for p, Initial residual = 0.00626633, Final residual = 5.49533e-05, No Iterations 10
time step continuity errors : sum local = 1.92588e-07, global = -5.17278e-08, cumulative = 9.66447e-07
GAMG:  Solving for p, Initial residual = 0.0046198, Final residual = 4.51276e-05, No Iterations 7
GAMG:  Solving for p, Initial residual = 0.00250855, Final residual = 2.2909e-05, No Iterations 6
GAMG:  Solving for p, Initial residual = 0.000889522, Final residual = 9.12214e-07, No Iterations 38
time step continuity errors : sum local = 3.17554e-09, global = 9.43776e-10, cumulative = 9.6739e-07
DILUPBiCG:  Solving for omega, Initial residual = 0.000948704, Final residual = 1.38403e-06, No Iterations 1
DILUPBiCG:  Solving for k, Initial residual = 0.00466174, Final residual = 2.05185e-06, No Iterations 2
ExecutionTime = 34.66 s  ClockTime = 35 s

Courant Number mean: 0.276968 max: 0.611488
Time = 0.455

GAMG:  Solving for cellDisplacementx, Initial residual = 0, Final residual = 0, No Iterations 0
GAMG:  Solving for cellDisplacementy, Initial residual = 0, Final residual = 0, No Iterations 0
GAMG:  Solving for cellDisplacementz, Initial residual = 0, Final residual = 0, No Iterations 0
PIMPLE: iteration 1
DILUPBiCG:  Solving for Ux, Initial residual = 0.00900365, Final residual = 3.31331e-05, No Iterations 1
DILUPBiCG:  Solving for Uy, Initial residual = 0.00148092, Final residual = 4.25538e-06, No Iterations 1
DILUPBiCG:  Solving for Uz, Initial residual = 0.0155143, Final residual = 4.13098e-05, No Iterations 1
GAMG:  Solving for p, Initial residual = 0.160262, Final residual = 0.0015437, No Iterations 8
GAMG:  Solving for p, Initial residual = 0.0245964, Final residual = 0.000214706, No Iterations 16
GAMG:  Solving for p, Initial residual = 0.00928723, Final residual = 8.30801e-05, No Iterations 12
time step continuity errors : sum local = 3.71824e-07, global = 1.11405e-07, cumulative = 1.07879e-06
GAMG:  Solving for p, Initial residual = 0.0616197, Final residual = 0.000532211, No Iterations 6
GAMG:  Solving for p, Initial residual = 0.0118504, Final residual = 0.00010189, No Iterations 16
GAMG:  Solving for p, Initial residual = 0.00483005, Final residual = 4.3164e-05, No Iterations 10
time step continuity errors : sum local = 1.91736e-07, global = 4.99154e-08, cumulative = 1.12871e-06
PIMPLE: iteration 2
DILUPBiCG:  Solving for Ux, Initial residual = 0.00321773, Final residual = 2.56711e-05, No Iterations 1
DILUPBiCG:  Solving for Uy, Initial residual = 0.000548658, Final residual = 2.98896e-06, No Iterations 1
DILUPBiCG:  Solving for Uz, Initial residual = 0.00460908, Final residual = 1.42393e-05, No Iterations 1
GAMG:  Solving for p, Initial residual = 0.0629698, Final residual = 0.000229739, No Iterations 4
GAMG:  Solving for p, Initial residual = 0.0117643, Final residual = 7.40951e-05, No Iterations 5
GAMG:  Solving for p, Initial residual = 0.00508289, Final residual = 3.59967e-05, No Iterations 5
time step continuity errors : sum local = 1.38516e-07, global = 2.89068e-08, cumulative = 1.15762e-06
GAMG:  Solving for p, Initial residual = 0.030896, Final residual = 0.000105504, No Iterations 4
GAMG:  Solving for p, Initial residual = 0.00561971, Final residual = 4.6499e-05, No Iterations 4
GAMG:  Solving for p, Initial residual = 0.00248786, Final residual = 1.64003e-05, No Iterations 7
time step continuity errors : sum local = 6.34145e-08, global = 9.45185e-09, cumulative = 1.16707e-06
PIMPLE: iteration 3
DILUPBiCG:  Solving for Ux, Initial residual = 0.00106041, Final residual = 2.69707e-07, No Iterations 2
DILUPBiCG:  Solving for Uy, Initial residual = 0.000178594, Final residual = 3.6794e-06, No Iterations 1
DILUPBiCG:  Solving for Uz, Initial residual = 0.00248907, Final residual = 1.49885e-06, No Iterations 2
GAMG:  Solving for p, Initial residual = 0.0521989, Final residual = 0.000379364, No Iterations 4
GAMG:  Solving for p, Initial residual = 0.0125115, Final residual = 0.000106086, No Iterations 10
GAMG:  Solving for p, Initial residual = 0.00573555, Final residual = 5.69351e-05, No Iterations 4
time step continuity errors : sum local = 2.36674e-07, global = -8.27186e-08, cumulative = 1.08435e-06
GAMG:  Solving for p, Initial residual = 0.00408181, Final residual = 3.7531e-05, No Iterations 8
GAMG:  Solving for p, Initial residual = 0.00223337, Final residual = 1.95324e-05, No Iterations 5
GAMG:  Solving for p, Initial residual = 0.000811236, Final residual = 9.99133e-07, No Iterations 34
time step continuity errors : sum local = 4.13547e-09, global = 1.225e-09, cumulative = 1.08558e-06
DILUPBiCG:  Solving for omega, Initial residual = 0.000900929, Final residual = 1.34068e-06, No Iterations 1
DILUPBiCG:  Solving for k, Initial residual = 0.00460833, Final residual = 2.17569e-06, No Iterations 2
ExecutionTime = 41.73 s  ClockTime = 42 s

Courant Number mean: 0.275387 max: 0.608117
Time = 0.456

GAMG:  Solving for cellDisplacementx, Initial residual = 0, Final residual = 0, No Iterations 0
GAMG:  Solving for cellDisplacementy, Initial residual = 0, Final residual = 0, No Iterations 0
GAMG:  Solving for cellDisplacementz, Initial residual = 0, Final residual = 0, No Iterations 0
PIMPLE: iteration 1
DILUPBiCG:  Solving for Ux, Initial residual = 0.011634, Final residual = 4.27689e-05, No Iterations 1
DILUPBiCG:  Solving for Uy, Initial residual = 0.00188256, Final residual = 4.82641e-06, No Iterations 1
DILUPBiCG:  Solving for Uz, Initial residual = 0.0149869, Final residual = 3.96901e-05, No Iterations 1
GAMG:  Solving for p, Initial residual = 0.153373, Final residual = 0.00146356, No Iterations 8
GAMG:  Solving for p, Initial residual = 0.0219383, Final residual = 0.000207341, No Iterations 16
GAMG:  Solving for p, Initial residual = 0.00832957, Final residual = 8.26621e-05, No Iterations 12
time step continuity errors : sum local = 4.2736e-07, global = 1.28328e-07, cumulative = 1.2139e-06
GAMG:  Solving for p, Initial residual = 0.0596198, Final residual = 0.000511071, No Iterations 6
GAMG:  Solving for p, Initial residual = 0.0106159, Final residual = 9.83141e-05, No Iterations 16
GAMG:  Solving for p, Initial residual = 0.00437538, Final residual = 3.62461e-05, No Iterations 12
time step continuity errors : sum local = 1.85976e-07, global = 5.50079e-08, cumulative = 1.26891e-06
PIMPLE: iteration 2
DILUPBiCG:  Solving for Ux, Initial residual = 0.00400334, Final residual = 2.59344e-05, No Iterations 1
DILUPBiCG:  Solving for Uy, Initial residual = 0.00067558, Final residual = 3.14322e-06, No Iterations 1
DILUPBiCG:  Solving for Uz, Initial residual = 0.00441011, Final residual = 1.3528e-05, No Iterations 1
GAMG:  Solving for p, Initial residual = 0.0612042, Final residual = 0.000336756, No Iterations 4
GAMG:  Solving for p, Initial residual = 0.010738, Final residual = 0.000103607, No Iterations 8
GAMG:  Solving for p, Initial residual = 0.00483999, Final residual = 4.46778e-05, No Iterations 8
time step continuity errors : sum local = 1.97634e-07, global = -6.77119e-08, cumulative = 1.2012e-06
GAMG:  Solving for p, Initial residual = 0.0302, Final residual = 0.000136397, No Iterations 4
GAMG:  Solving for p, Initial residual = 0.00513435, Final residual = 4.58032e-05, No Iterations 8
GAMG:  Solving for p, Initial residual = 0.00234807, Final residual = 2.00852e-05, No Iterations 8
time step continuity errors : sum local = 8.9087e-08, global = -2.90024e-08, cumulative = 1.1722e-06
PIMPLE: iteration 3
DILUPBiCG:  Solving for Ux, Initial residual = 0.00125359, Final residual = 3.26028e-07, No Iterations 2
DILUPBiCG:  Solving for Uy, Initial residual = 0.000209455, Final residual = 4.3982e-06, No Iterations 1
DILUPBiCG:  Solving for Uz, Initial residual = 0.00297252, Final residual = 1.0526e-06, No Iterations 2
GAMG:  Solving for p, Initial residual = 0.0484369, Final residual = 0.000416686, No Iterations 4
GAMG:  Solving for p, Initial residual = 0.0115941, Final residual = 0.000102965, No Iterations 12
GAMG:  Solving for p, Initial residual = 0.005329, Final residual = 5.05486e-05, No Iterations 4
time step continuity errors : sum local = 2.43111e-07, global = -9.06648e-08, cumulative = 1.08153e-06
GAMG:  Solving for p, Initial residual = 0.00373924, Final residual = 3.25494e-05, No Iterations 8
GAMG:  Solving for p, Initial residual = 0.00206268, Final residual = 1.88864e-05, No Iterations 5
GAMG:  Solving for p, Initial residual = 0.000755488, Final residual = 9.40533e-07, No Iterations 36
time step continuity errors : sum local = 4.50882e-09, global = 1.33244e-09, cumulative = 1.08286e-06
DILUPBiCG:  Solving for omega, Initial residual = 0.000853054, Final residual = 1.30049e-06, No Iterations 1
DILUPBiCG:  Solving for k, Initial residual = 0.00461944, Final residual = 1.97884e-06, No Iterations 2
ExecutionTime = 49.26 s  ClockTime = 50 s

Courant Number mean: 0.273461 max: 0.604132
Time = 0.457

GAMG:  Solving for cellDisplacementx, Initial residual = 0, Final residual = 0, No Iterations 0
GAMG:  Solving for cellDisplacementy, Initial residual = 0, Final residual = 0, No Iterations 0
GAMG:  Solving for cellDisplacementz, Initial residual = 0, Final residual = 0, No Iterations 0
PIMPLE: iteration 1
DILUPBiCG:  Solving for Ux, Initial residual = 0.0142685, Final residual = 5.34878e-05, No Iterations 1
DILUPBiCG:  Solving for Uy, Initial residual = 0.00228798, Final residual = 5.56486e-06, No Iterations 1
DILUPBiCG:  Solving for Uz, Initial residual = 0.0145827, Final residual = 3.85861e-05, No Iterations 1
GAMG:  Solving for p, Initial residual = 0.148568, Final residual = 0.00139886, No Iterations 8
GAMG:  Solving for p, Initial residual = 0.0201586, Final residual = 0.000200915, No Iterations 16
GAMG:  Solving for p, Initial residual = 0.00772811, Final residual = 6.69004e-05, No Iterations 14
time step continuity errors : sum local = 3.92721e-07, global = 1.23012e-07, cumulative = 1.20588e-06
GAMG:  Solving for p, Initial residual = 0.0582719, Final residual = 0.000492527, No Iterations 6
GAMG:  Solving for p, Initial residual = 0.00976968, Final residual = 9.53896e-05, No Iterations 16
GAMG:  Solving for p, Initial residual = 0.00406166, Final residual = 3.6015e-05, No Iterations 12
time step continuity errors : sum local = 2.09893e-07, global = 6.22196e-08, cumulative = 1.2681e-06
PIMPLE: iteration 2
DILUPBiCG:  Solving for Ux, Initial residual = 0.00478086, Final residual = 2.42597e-05, No Iterations 1
DILUPBiCG:  Solving for Uy, Initial residual = 0.000801669, Final residual = 3.23455e-06, No Iterations 1
DILUPBiCG:  Solving for Uz, Initial residual = 0.00425806, Final residual = 1.29348e-05, No Iterations 1
GAMG:  Solving for p, Initial residual = 0.0599127, Final residual = 0.000290594, No Iterations 4
GAMG:  Solving for p, Initial residual = 0.0100832, Final residual = 9.99774e-05, No Iterations 13
GAMG:  Solving for p, Initial residual = 0.00482523, Final residual = 4.251e-05, No Iterations 5
time step continuity errors : sum local = 2.11872e-07, global = -7.27918e-08, cumulative = 1.1953e-06
GAMG:  Solving for p, Initial residual = 0.029737, Final residual = 0.000288979, No Iterations 3
GAMG:  Solving for p, Initial residual = 0.00482494, Final residual = 4.30256e-05, No Iterations 6
GAMG:  Solving for p, Initial residual = 0.00230207, Final residual = 1.56604e-05, No Iterations 5
time step continuity errors : sum local = 7.83752e-08, global = -1.98503e-08, cumulative = 1.17545e-06
PIMPLE: iteration 3
DILUPBiCG:  Solving for Ux, Initial residual = 0.00143994, Final residual = 3.53634e-07, No Iterations 2
DILUPBiCG:  Solving for Uy, Initial residual = 0.00023885, Final residual = 5.03829e-06, No Iterations 1
DILUPBiCG:  Solving for Uz, Initial residual = 0.00346216, Final residual = 8.92656e-07, No Iterations 2
GAMG:  Solving for p, Initial residual = 0.0458509, Final residual = 0.000445112, No Iterations 4
GAMG:  Solving for p, Initial residual = 0.0108615, Final residual = 9.34712e-05, No Iterations 14
GAMG:  Solving for p, Initial residual = 0.00502354, Final residual = 4.69917e-05, No Iterations 4
time step continuity errors : sum local = 2.56944e-07, global = -9.12739e-08, cumulative = 1.08418e-06
GAMG:  Solving for p, Initial residual = 0.0034696, Final residual = 2.51139e-05, No Iterations 6
GAMG:  Solving for p, Initial residual = 0.00195863, Final residual = 1.76706e-05, No Iterations 4
GAMG:  Solving for p, Initial residual = 0.000718433, Final residual = 8.94755e-07, No Iterations 31
time step continuity errors : sum local = 4.88376e-09, global = 1.44386e-09, cumulative = 1.08562e-06
DILUPBiCG:  Solving for omega, Initial residual = 0.000806327, Final residual = 1.26585e-06, No Iterations 1
DILUPBiCG:  Solving for k, Initial residual = 0.00467284, Final residual = 1.65841e-06, No Iterations 2
ExecutionTime = 56.37 s  ClockTime = 57 s

Courant Number mean: 0.271198 max: 0.599255
Time = 0.458

GAMG:  Solving for cellDisplacementx, Initial residual = 0, Final residual = 0, No Iterations 0
GAMG:  Solving for cellDisplacementy, Initial residual = 0, Final residual = 0, No Iterations 0
GAMG:  Solving for cellDisplacementz, Initial residual = 0, Final residual = 0, No Iterations 0
PIMPLE: iteration 1
DILUPBiCG:  Solving for Ux, Initial residual = 0.0169004, Final residual = 6.47913e-05, No Iterations 1
DILUPBiCG:  Solving for Uy, Initial residual = 0.00269556, Final residual = 6.39933e-06, No Iterations 1
DILUPBiCG:  Solving for Uz, Initial residual = 0.0142555, Final residual = 3.77735e-05, No Iterations 1
GAMG:  Solving for p, Initial residual = 0.144714, Final residual = 0.00134249, No Iterations 8
GAMG:  Solving for p, Initial residual = 0.0188159, Final residual = 0.000166741, No Iterations 18
GAMG:  Solving for p, Initial residual = 0.00728929, Final residual = 6.61777e-05, No Iterations 12
time step continuity errors : sum local = 4.35969e-07, global = 1.3067e-07, cumulative = 1.21629e-06
GAMG:  Solving for p, Initial residual = 0.0572315, Final residual = 0.000476398, No Iterations 6
GAMG:  Solving for p, Initial residual = 0.0091603, Final residual = 7.91366e-05, No Iterations 18
GAMG:  Solving for p, Initial residual = 0.00385668, Final residual = 3.42137e-05, No Iterations 10
time step continuity errors : sum local = 2.23677e-07, global = 5.84352e-08, cumulative = 1.27473e-06
PIMPLE: iteration 2
DILUPBiCG:  Solving for Ux, Initial residual = 0.0055534, Final residual = 2.45732e-05, No Iterations 1
DILUPBiCG:  Solving for Uy, Initial residual = 0.000928278, Final residual = 3.32563e-06, No Iterations 1
DILUPBiCG:  Solving for Uz, Initial residual = 0.00415671, Final residual = 1.25043e-05, No Iterations 1
GAMG:  Solving for p, Initial residual = 0.0588325, Final residual = 0.000307165, No Iterations 4
GAMG:  Solving for p, Initial residual = 0.00971002, Final residual = 8.78218e-05, No Iterations 14
GAMG:  Solving for p, Initial residual = 0.00467546, Final residual = 4.63646e-05, No Iterations 7
time step continuity errors : sum local = 2.57895e-07, global = 9.272e-08, cumulative = 1.36745e-06
GAMG:  Solving for p, Initial residual = 0.0293494, Final residual = 0.000130059, No Iterations 4
GAMG:  Solving for p, Initial residual = 0.00466259, Final residual = 4.13806e-05, No Iterations 12
GAMG:  Solving for p, Initial residual = 0.00219098, Final residual = 2.18854e-05, No Iterations 7
time step continuity errors : sum local = 1.22236e-07, global = 4.59991e-08, cumulative = 1.41345e-06
PIMPLE: iteration 3
DILUPBiCG:  Solving for Ux, Initial residual = 0.00162577, Final residual = 3.53623e-07, No Iterations 2
DILUPBiCG:  Solving for Uy, Initial residual = 0.000268971, Final residual = 5.57389e-06, No Iterations 1
DILUPBiCG:  Solving for Uz, Initial residual = 0.00393383, Final residual = 9.1646e-07, No Iterations 2
GAMG:  Solving for p, Initial residual = 0.0440107, Final residual = 0.000352313, No Iterations 5
GAMG:  Solving for p, Initial residual = 0.0104247, Final residual = 9.4023e-05, No Iterations 13
GAMG:  Solving for p, Initial residual = 0.00478144, Final residual = 3.9026e-05, No Iterations 10
time step continuity errors : sum local = 2.3939e-07, global = -6.21283e-08, cumulative = 1.35132e-06
GAMG:  Solving for p, Initial residual = 0.003279, Final residual = 2.29086e-05, No Iterations 6
GAMG:  Solving for p, Initial residual = 0.00189444, Final residual = 1.71058e-05, No Iterations 5
GAMG:  Solving for p, Initial residual = 0.000683175, Final residual = 9.04684e-07, No Iterations 34
time step continuity errors : sum local = 5.54517e-09, global = 1.62893e-09, cumulative = 1.35295e-06
DILUPBiCG:  Solving for omega, Initial residual = 0.000761711, Final residual = 1.23937e-06, No Iterations 1
DILUPBiCG:  Solving for k, Initial residual = 0.00473118, Final residual = 1.4142e-06, No Iterations 2
ExecutionTime = 63.74 s  ClockTime = 64 s

Courant Number mean: 0.268608 max: 0.593804
Time = 0.459

GAMG:  Solving for cellDisplacementx, Initial residual = 0, Final residual = 0, No Iterations 0
GAMG:  Solving for cellDisplacementy, Initial residual = 0, Final residual = 0, No Iterations 0
GAMG:  Solving for cellDisplacementz, Initial residual = 0, Final residual = 0, No Iterations 0
PIMPLE: iteration 1
DILUPBiCG:  Solving for Ux, Initial residual = 0.0195366, Final residual = 7.64378e-05, No Iterations 1
DILUPBiCG:  Solving for Uy, Initial residual = 0.00310716, Final residual = 7.30293e-06, No Iterations 1
DILUPBiCG:  Solving for Uz, Initial residual = 0.0141256, Final residual = 3.75427e-05, No Iterations 1
GAMG:  Solving for p, Initial residual = 0.141489, Final residual = 0.00129016, No Iterations 8
GAMG:  Solving for p, Initial residual = 0.01772, Final residual = 0.000162146, No Iterations 18
GAMG:  Solving for p, Initial residual = 0.00696076, Final residual = 6.4464e-05, No Iterations 12
time step continuity errors : sum local = 4.70203e-07, global = 1.4091e-07, cumulative = 1.49386e-06
GAMG:  Solving for p, Initial residual = 0.0563506, Final residual = 0.000461319, No Iterations 6
GAMG:  Solving for p, Initial residual = 0.0086949, Final residual = 7.71372e-05, No Iterations 18
GAMG:  Solving for p, Initial residual = 0.0037028, Final residual = 3.37697e-05, No Iterations 10
time step continuity errors : sum local = 2.44565e-07, global = 6.39507e-08, cumulative = 1.55781e-06
PIMPLE: iteration 2
DILUPBiCG:  Solving for Ux, Initial residual = 0.00631883, Final residual = 2.75097e-05, No Iterations 1
DILUPBiCG:  Solving for Uy, Initial residual = 0.00105469, Final residual = 3.44028e-06, No Iterations 1
DILUPBiCG:  Solving for Uz, Initial residual = 0.00408225, Final residual = 1.22166e-05, No Iterations 1
GAMG:  Solving for p, Initial residual = 0.0578883, Final residual = 0.000351754, No Iterations 4
GAMG:  Solving for p, Initial residual = 0.00943319, Final residual = 8.99803e-05, No Iterations 14
GAMG:  Solving for p, Initial residual = 0.00452356, Final residual = 4.18724e-05, No Iterations 8
time step continuity errors : sum local = 2.57165e-07, global = -9.11466e-08, cumulative = 1.46666e-06
GAMG:  Solving for p, Initial residual = 0.0289862, Final residual = 0.00014904, No Iterations 4
GAMG:  Solving for p, Initial residual = 0.00452054, Final residual = 4.15546e-05, No Iterations 12
GAMG:  Solving for p, Initial residual = 0.00209848, Final residual = 1.83054e-05, No Iterations 8
time step continuity errors : sum local = 1.12924e-07, global = -3.84692e-08, cumulative = 1.42819e-06
PIMPLE: iteration 3
DILUPBiCG:  Solving for Ux, Initial residual = 0.00180583, Final residual = 3.55742e-07, No Iterations 2
DILUPBiCG:  Solving for Uy, Initial residual = 0.000298238, Final residual = 6.01672e-06, No Iterations 1
DILUPBiCG:  Solving for Uz, Initial residual = 0.00441437, Final residual = 1.00205e-06, No Iterations 2
GAMG:  Solving for p, Initial residual = 0.0427228, Final residual = 0.000347365, No Iterations 5
GAMG:  Solving for p, Initial residual = 0.010001, Final residual = 9.67656e-05, No Iterations 13
GAMG:  Solving for p, Initial residual = 0.00460232, Final residual = 4.20426e-05, No Iterations 10
time step continuity errors : sum local = 2.8606e-07, global = -7.45384e-08, cumulative = 1.35366e-06
GAMG:  Solving for p, Initial residual = 0.00310886, Final residual = 2.98827e-05, No Iterations 6
GAMG:  Solving for p, Initial residual = 0.0017636, Final residual = 1.73815e-05, No Iterations 10
GAMG:  Solving for p, Initial residual = 0.000666646, Final residual = 9.14939e-07, No Iterations 36
time step continuity errors : sum local = 6.22012e-09, global = 1.83242e-09, cumulative = 1.35549e-06
DILUPBiCG:  Solving for omega, Initial residual = 0.000719215, Final residual = 1.22205e-06, No Iterations 1
DILUPBiCG:  Solving for k, Initial residual = 0.00477508, Final residual = 1.28261e-06, No Iterations 2
ExecutionTime = 71.9 s  ClockTime = 72 s

Courant Number mean: 0.265701 max: 0.587604
Time = 0.46

GAMG:  Solving for cellDisplacementx, Initial residual = 0, Final residual = 0, No Iterations 0
GAMG:  Solving for cellDisplacementy, Initial residual = 0, Final residual = 0, No Iterations 0
GAMG:  Solving for cellDisplacementz, Initial residual = 0, Final residual = 0, No Iterations 0
PIMPLE: iteration 1
DILUPBiCG:  Solving for Ux, Initial residual = 0.022152, Final residual = 8.81987e-05, No Iterations 1
DILUPBiCG:  Solving for Uy, Initial residual = 0.00351721, Final residual = 8.23856e-06, No Iterations 1
DILUPBiCG:  Solving for Uz, Initial residual = 0.0138088, Final residual = 3.67705e-05, No Iterations 1
GAMG:  Solving for p, Initial residual = 0.138866, Final residual = 0.00124436, No Iterations 8
GAMG:  Solving for p, Initial residual = 0.0168854, Final residual = 0.000158128, No Iterations 18
GAMG:  Solving for p, Initial residual = 0.0066987, Final residual = 6.36486e-05, No Iterations 12
time step continuity errors : sum local = 5.08955e-07, global = 1.52727e-07, cumulative = 1.50822e-06
GAMG:  Solving for p, Initial residual = 0.0556463, Final residual = 0.000447241, No Iterations 6
GAMG:  Solving for p, Initial residual = 0.00834133, Final residual = 7.5242e-05, No Iterations 18
GAMG:  Solving for p, Initial residual = 0.00357749, Final residual = 3.38856e-05, No Iterations 10
time step continuity errors : sum local = 2.69153e-07, global = 7.03258e-08, cumulative = 1.57854e-06
PIMPLE: iteration 2
DILUPBiCG:  Solving for Ux, Initial residual = 0.00707336, Final residual = 3.17644e-05, No Iterations 1
DILUPBiCG:  Solving for Uy, Initial residual = 0.00118023, Final residual = 3.57442e-06, No Iterations 1
DILUPBiCG:  Solving for Uz, Initial residual = 0.00402853, Final residual = 1.20755e-05, No Iterations 1
GAMG:  Solving for p, Initial residual = 0.057074, Final residual = 0.000381561, No Iterations 4
GAMG:  Solving for p, Initial residual = 0.00920305, Final residual = 9.16098e-05, No Iterations 14
GAMG:  Solving for p, Initial residual = 0.00437736, Final residual = 4.2121e-05, No Iterations 8
time step continuity errors : sum local = 2.8312e-07, global = -9.57835e-08, cumulative = 1.48276e-06
GAMG:  Solving for p, Initial residual = 0.028667, Final residual = 0.000160397, No Iterations 4
GAMG:  Solving for p, Initial residual = 0.00440526, Final residual = 4.22223e-05, No Iterations 12
GAMG:  Solving for p, Initial residual = 0.00202401, Final residual = 1.86777e-05, No Iterations 8
time step continuity errors : sum local = 1.26133e-07, global = -4.07354e-08, cumulative = 1.44202e-06
PIMPLE: iteration 3
DILUPBiCG:  Solving for Ux, Initial residual = 0.00198274, Final residual = 4.64746e-07, No Iterations 2
DILUPBiCG:  Solving for Uy, Initial residual = 0.000327588, Final residual = 6.37595e-06, No Iterations 1
DILUPBiCG:  Solving for Uz, Initial residual = 0.00482824, Final residual = 1.10091e-06, No Iterations 2
GAMG:  Solving for p, Initial residual = 0.0417988, Final residual = 0.000344727, No Iterations 5
GAMG:  Solving for p, Initial residual = 0.00971598, Final residual = 8.4117e-05, No Iterations 15
GAMG:  Solving for p, Initial residual = 0.00450396, Final residual = 4.27667e-05, No Iterations 8
time step continuity errors : sum local = 3.19165e-07, global = -7.08131e-08, cumulative = 1.37121e-06
GAMG:  Solving for p, Initial residual = 0.00297751, Final residual = 2.56218e-05, No Iterations 18
GAMG:  Solving for p, Initial residual = 0.00172595, Final residual = 1.42375e-05, No Iterations 4
GAMG:  Solving for p, Initial residual = 0.000635351, Final residual = 9.91286e-07, No Iterations 36
time step continuity errors : sum local = 7.39563e-09, global = 2.18216e-09, cumulative = 1.37339e-06
DILUPBiCG:  Solving for omega, Initial residual = 0.00067894, Final residual = 1.21662e-06, No Iterations 1
DILUPBiCG:  Solving for k, Initial residual = 0.00481789, Final residual = 1.25549e-06, No Iterations 2
ExecutionTime = 78.88 s  ClockTime = 79 s

End

