/*---------------------------------------------------------------------------*\
| =========                 |                                                 |
| \\      /  F ield         | OpenFOAM: The Open Source CFD Toolbox           |
|  \\    /   O peration     | Version:  2.3.1                                 |
|   \\  /    A nd           | Web:      www.OpenFOAM.org                      |
|    \\/     M anipulation  |                                                 |
\*---------------------------------------------------------------------------*/
Build  : 2.3.1-262087cdf8db
Exec   : pimpleDyMFoam
Date   : Jun 04 2023
Time   : 16:53:35
Host   : "jcosson-VirtualBox"
PID    : 3952
Case   : /home/jcosson/workspace/henersj_shootingdata/calcs/moderate_deformed/primal/10_intervals_04-06-23/sweep3/interval10
nProcs : 1
sigFpe : Enabling floating point exception trapping (FOAM_SIGFPE).
fileModificationChecking : Monitoring run-time modified files using timeStampMaster
allowSystemOperations : Allowing user-supplied system call operations

// * * * * * * * * * * * * * * * * * * * * * * * * * * * * * * * * * * * * * //
Create time

Create mesh for time = 0.49

Selecting dynamicFvMesh dynamicMotionSolverFvMesh
Selecting motion solver: displacementLaplacian
Selecting motion diffusion: quadratic
Selecting motion diffusion: quadratic
Selecting motion diffusion: inverseDistance

PIMPLE: no residual control data found. Calculations will employ 3 corrector loops

Reading field p

Reading field U

Reading/calculating face flux field phi

Selecting incompressible transport model Newtonian
Selecting turbulence model type RASModel
Selecting RAS turbulence model kOmegaSST
bounding k, min: 0 max: 0.000699792 average: 0.000157986
kOmegaSSTCoeffs
{
    alphaK1         0.85034;
    alphaK2         1;
    alphaOmega1     0.5;
    alphaOmega2     0.85616;
    gamma1          0.5532;
    gamma2          0.4403;
    beta1           0.075;
    beta2           0.0828;
    betaStar        0.09;
    a1              0.31;
    c1              10;
    Cmu             0.09;
    b1              1;
    F3              false;
}

Reading/calculating face velocity Uf

No finite volume options present

Courant Number mean: 0.115492 max: 0.260731

Starting time loop

Courant Number mean: 0.115492 max: 0.260731
Time = 0.491

GAMG:  Solving for cellDisplacementx, Initial residual = 0, Final residual = 0, No Iterations 0
GAMG:  Solving for cellDisplacementy, Initial residual = 0, Final residual = 0, No Iterations 0
GAMG:  Solving for cellDisplacementz, Initial residual = 0, Final residual = 0, No Iterations 0
PIMPLE: iteration 1
DILUPBiCG:  Solving for Ux, Initial residual = 0.0518793, Final residual = 0.000189504, No Iterations 1
DILUPBiCG:  Solving for Uy, Initial residual = 0.0105565, Final residual = 2.14917e-05, No Iterations 1
DILUPBiCG:  Solving for Uz, Initial residual = 0.0189006, Final residual = 1.89416e-05, No Iterations 1
GAMG:  Solving for p, Initial residual = 0.116063, Final residual = 0.000616231, No Iterations 4
GAMG:  Solving for p, Initial residual = 0.0163054, Final residual = 0.000143529, No Iterations 16
GAMG:  Solving for p, Initial residual = 0.00789031, Final residual = 5.61587e-05, No Iterations 5
time step continuity errors : sum local = 5.63792e-07, global = 1.03721e-07, cumulative = 1.03721e-07
GAMG:  Solving for p, Initial residual = 0.0528136, Final residual = 0.000253297, No Iterations 4
GAMG:  Solving for p, Initial residual = 0.00802074, Final residual = 7.30831e-05, No Iterations 14
GAMG:  Solving for p, Initial residual = 0.00397176, Final residual = 2.648e-05, No Iterations 5
time step continuity errors : sum local = 2.67247e-07, global = 1.23781e-08, cumulative = 1.161e-07
PIMPLE: iteration 2
DILUPBiCG:  Solving for Ux, Initial residual = 0.0132225, Final residual = 7.53902e-05, No Iterations 1
DILUPBiCG:  Solving for Uy, Initial residual = 0.00277604, Final residual = 5.6809e-06, No Iterations 1
DILUPBiCG:  Solving for Uz, Initial residual = 0.0027069, Final residual = 7.0063e-06, No Iterations 1
GAMG:  Solving for p, Initial residual = 0.0516564, Final residual = 0.000476852, No Iterations 5
GAMG:  Solving for p, Initial residual = 0.0116763, Final residual = 0.000104535, No Iterations 6
GAMG:  Solving for p, Initial residual = 0.0050232, Final residual = 3.25545e-05, No Iterations 5
time step continuity errors : sum local = 2.84929e-07, global = 1.77924e-08, cumulative = 1.33892e-07
GAMG:  Solving for p, Initial residual = 0.0275147, Final residual = 0.000249754, No Iterations 4
GAMG:  Solving for p, Initial residual = 0.00626746, Final residual = 5.909e-05, No Iterations 12
GAMG:  Solving for p, Initial residual = 0.002501, Final residual = 2.10912e-05, No Iterations 10
time step continuity errors : sum local = 1.85034e-07, global = -4.71885e-08, cumulative = 8.67034e-08
PIMPLE: iteration 3
DILUPBiCG:  Solving for Ux, Initial residual = 0.00268603, Final residual = 2.36963e-06, No Iterations 2
DILUPBiCG:  Solving for Uy, Initial residual = 0.000619219, Final residual = 4.90133e-06, No Iterations 1
DILUPBiCG:  Solving for Uz, Initial residual = 0.00426565, Final residual = 1.49342e-06, No Iterations 2
GAMG:  Solving for p, Initial residual = 0.0461398, Final residual = 0.000356414, No Iterations 5
GAMG:  Solving for p, Initial residual = 0.0108851, Final residual = 0.000104951, No Iterations 14
GAMG:  Solving for p, Initial residual = 0.00564431, Final residual = 5.57395e-05, No Iterations 10
time step continuity errors : sum local = 5.46991e-07, global = -1.45124e-07, cumulative = -5.84201e-08
GAMG:  Solving for p, Initial residual = 0.0026537, Final residual = 2.44419e-05, No Iterations 8
GAMG:  Solving for p, Initial residual = 0.0013585, Final residual = 1.28177e-05, No Iterations 5
GAMG:  Solving for p, Initial residual = 0.00053844, Final residual = 9.01399e-07, No Iterations 28
time step continuity errors : sum local = 8.73279e-09, global = 2.63881e-09, cumulative = -5.57813e-08
DILUPBiCG:  Solving for omega, Initial residual = 0.00138636, Final residual = 7.84783e-07, No Iterations 1
DILUPBiCG:  Solving for k, Initial residual = 0.00379966, Final residual = 6.18372e-07, No Iterations 2
bounding k, min: 0 max: 0.000690433 average: 0.000156971
ExecutionTime = 10.27 s  ClockTime = 11 s

Courant Number mean: 0.112301 max: 0.25374
Time = 0.492

GAMG:  Solving for cellDisplacementx, Initial residual = 0, Final residual = 0, No Iterations 0
GAMG:  Solving for cellDisplacementy, Initial residual = 0, Final residual = 0, No Iterations 0
GAMG:  Solving for cellDisplacementz, Initial residual = 0, Final residual = 0, No Iterations 0
PIMPLE: iteration 1
DILUPBiCG:  Solving for Ux, Initial residual = 0.0482344, Final residual = 0.00017594, No Iterations 1
DILUPBiCG:  Solving for Uy, Initial residual = 0.00998696, Final residual = 2.02448e-05, No Iterations 1
DILUPBiCG:  Solving for Uz, Initial residual = 0.0164974, Final residual = 1.55855e-05, No Iterations 1
GAMG:  Solving for p, Initial residual = 0.106269, Final residual = 0.000640161, No Iterations 4
GAMG:  Solving for p, Initial residual = 0.0144335, Final residual = 0.000136657, No Iterations 18
GAMG:  Solving for p, Initial residual = 0.00754994, Final residual = 7.18109e-05, No Iterations 4
time step continuity errors : sum local = 6.66905e-07, global = 2.29634e-07, cumulative = 1.73852e-07
GAMG:  Solving for p, Initial residual = 0.0485808, Final residual = 0.000274139, No Iterations 4
GAMG:  Solving for p, Initial residual = 0.00705702, Final residual = 6.1862e-05, No Iterations 18
GAMG:  Solving for p, Initial residual = 0.00378491, Final residual = 3.43558e-05, No Iterations 4
time step continuity errors : sum local = 3.21691e-07, global = 1.03988e-07, cumulative = 2.77841e-07
PIMPLE: iteration 2
DILUPBiCG:  Solving for Ux, Initial residual = 0.0122114, Final residual = 6.9552e-05, No Iterations 1
DILUPBiCG:  Solving for Uy, Initial residual = 0.00259121, Final residual = 5.28076e-06, No Iterations 1
DILUPBiCG:  Solving for Uz, Initial residual = 0.00298503, Final residual = 9.55943e-06, No Iterations 1
GAMG:  Solving for p, Initial residual = 0.0463933, Final residual = 0.000334793, No Iterations 6
GAMG:  Solving for p, Initial residual = 0.0104291, Final residual = 9.43138e-05, No Iterations 14
GAMG:  Solving for p, Initial residual = 0.00432562, Final residual = 4.15229e-05, No Iterations 4
time step continuity errors : sum local = 3.38494e-07, global = -1.25903e-07, cumulative = 1.51937e-07
GAMG:  Solving for p, Initial residual = 0.0245999, Final residual = 0.000151134, No Iterations 6
GAMG:  Solving for p, Initial residual = 0.00550858, Final residual = 4.88086e-05, No Iterations 12
GAMG:  Solving for p, Initial residual = 0.0021446, Final residual = 1.94122e-05, No Iterations 4
time step continuity errors : sum local = 1.58687e-07, global = -5.87637e-08, cumulative = 9.31736e-08
PIMPLE: iteration 3
DILUPBiCG:  Solving for Ux, Initial residual = 0.00247727, Final residual = 2.36796e-06, No Iterations 2
DILUPBiCG:  Solving for Uy, Initial residual = 0.000575827, Final residual = 5.37341e-06, No Iterations 1
DILUPBiCG:  Solving for Uz, Initial residual = 0.00533828, Final residual = 1.9371e-06, No Iterations 2
GAMG:  Solving for p, Initial residual = 0.0468854, Final residual = 0.000345846, No Iterations 5
GAMG:  Solving for p, Initial residual = 0.0106221, Final residual = 9.97516e-05, No Iterations 14
GAMG:  Solving for p, Initial residual = 0.00554243, Final residual = 5.05157e-05, No Iterations 10
time step continuity errors : sum local = 4.60626e-07, global = -1.22259e-07, cumulative = -2.90855e-08
GAMG:  Solving for p, Initial residual = 0.00261209, Final residual = 2.00919e-05, No Iterations 8
GAMG:  Solving for p, Initial residual = 0.00137573, Final residual = 1.35446e-05, No Iterations 4
GAMG:  Solving for p, Initial residual = 0.000568275, Final residual = 9.23607e-07, No Iterations 23
time step continuity errors : sum local = 8.31988e-09, global = 2.58432e-09, cumulative = -2.65012e-08
DILUPBiCG:  Solving for omega, Initial residual = 0.00140569, Final residual = 7.69456e-07, No Iterations 1
DILUPBiCG:  Solving for k, Initial residual = 0.00376019, Final residual = 6.00819e-07, No Iterations 2
bounding k, min: 0 max: 0.000680547 average: 0.000155976
ExecutionTime = 20.08 s  ClockTime = 20 s

Courant Number mean: 0.109421 max: 0.247376
Time = 0.493

GAMG:  Solving for cellDisplacementx, Initial residual = 0, Final residual = 0, No Iterations 0
GAMG:  Solving for cellDisplacementy, Initial residual = 0, Final residual = 0, No Iterations 0
GAMG:  Solving for cellDisplacementz, Initial residual = 0, Final residual = 0, No Iterations 0
PIMPLE: iteration 1
DILUPBiCG:  Solving for Ux, Initial residual = 0.0445791, Final residual = 0.000162359, No Iterations 1
DILUPBiCG:  Solving for Uy, Initial residual = 0.00929293, Final residual = 1.87104e-05, No Iterations 1
DILUPBiCG:  Solving for Uz, Initial residual = 0.0168166, Final residual = 1.84841e-05, No Iterations 1
GAMG:  Solving for p, Initial residual = 0.104897, Final residual = 0.000500854, No Iterations 4
GAMG:  Solving for p, Initial residual = 0.0139038, Final residual = 0.000137883, No Iterations 16
GAMG:  Solving for p, Initial residual = 0.00732251, Final residual = 6.02696e-05, No Iterations 5
time step continuity errors : sum local = 5.10942e-07, global = 9.44361e-08, cumulative = 6.79349e-08
GAMG:  Solving for p, Initial residual = 0.0485643, Final residual = 0.00021511, No Iterations 4
GAMG:  Solving for p, Initial residual = 0.00676227, Final residual = 6.29888e-05, No Iterations 16
GAMG:  Solving for p, Initial residual = 0.00369813, Final residual = 3.12153e-05, No Iterations 5
time step continuity errors : sum local = 2.66294e-07, global = 4.79138e-08, cumulative = 1.15849e-07
PIMPLE: iteration 2
DILUPBiCG:  Solving for Ux, Initial residual = 0.0111379, Final residual = 6.34913e-05, No Iterations 1
DILUPBiCG:  Solving for Uy, Initial residual = 0.00238234, Final residual = 4.83499e-06, No Iterations 1
DILUPBiCG:  Solving for Uz, Initial residual = 0.0027361, Final residual = 7.20135e-06, No Iterations 1
GAMG:  Solving for p, Initial residual = 0.0463952, Final residual = 0.000314293, No Iterations 6
GAMG:  Solving for p, Initial residual = 0.0114753, Final residual = 0.000102984, No Iterations 14
GAMG:  Solving for p, Initial residual = 0.00459256, Final residual = 4.33634e-05, No Iterations 4
time step continuity errors : sum local = 3.21198e-07, global = -1.21808e-07, cumulative = -5.95903e-09
GAMG:  Solving for p, Initial residual = 0.0249626, Final residual = 0.000221163, No Iterations 5
GAMG:  Solving for p, Initial residual = 0.00659094, Final residual = 6.18628e-05, No Iterations 6
GAMG:  Solving for p, Initial residual = 0.00223907, Final residual = 1.53599e-05, No Iterations 5
time step continuity errors : sum local = 1.13823e-07, global = -2.92971e-08, cumulative = -3.52561e-08
PIMPLE: iteration 3
DILUPBiCG:  Solving for Ux, Initial residual = 0.00215138, Final residual = 2.72582e-06, No Iterations 2
DILUPBiCG:  Solving for Uy, Initial residual = 0.000505654, Final residual = 5.76859e-06, No Iterations 1
DILUPBiCG:  Solving for Uz, Initial residual = 0.00370934, Final residual = 1.35721e-06, No Iterations 2
GAMG:  Solving for p, Initial residual = 0.0480744, Final residual = 0.000365332, No Iterations 5
GAMG:  Solving for p, Initial residual = 0.0112905, Final residual = 0.000109055, No Iterations 14
GAMG:  Solving for p, Initial residual = 0.00601686, Final residual = 5.76765e-05, No Iterations 10
time step continuity errors : sum local = 4.77105e-07, global = -1.27706e-07, cumulative = -1.62962e-07
GAMG:  Solving for p, Initial residual = 0.0027287, Final residual = 2.37235e-05, No Iterations 8
GAMG:  Solving for p, Initial residual = 0.00139303, Final residual = 1.35185e-05, No Iterations 4
GAMG:  Solving for p, Initial residual = 0.000538868, Final residual = 9.66733e-07, No Iterations 21
time step continuity errors : sum local = 7.88744e-09, global = 2.45404e-09, cumulative = -1.60508e-07
DILUPBiCG:  Solving for omega, Initial residual = 0.00142092, Final residual = 7.55658e-07, No Iterations 1
DILUPBiCG:  Solving for k, Initial residual = 0.00372099, Final residual = 5.89589e-07, No Iterations 2
bounding k, min: 0 max: 0.000670214 average: 0.000155003
ExecutionTime = 28.94 s  ClockTime = 29 s

Courant Number mean: 0.106845 max: 0.241675
Time = 0.494

GAMG:  Solving for cellDisplacementx, Initial residual = 0, Final residual = 0, No Iterations 0
GAMG:  Solving for cellDisplacementy, Initial residual = 0, Final residual = 0, No Iterations 0
GAMG:  Solving for cellDisplacementz, Initial residual = 0, Final residual = 0, No Iterations 0
PIMPLE: iteration 1
DILUPBiCG:  Solving for Ux, Initial residual = 0.0402515, Final residual = 0.000146509, No Iterations 1
DILUPBiCG:  Solving for Uy, Initial residual = 0.00851863, Final residual = 1.71028e-05, No Iterations 1
DILUPBiCG:  Solving for Uz, Initial residual = 0.0142353, Final residual = 1.35016e-05, No Iterations 1
GAMG:  Solving for p, Initial residual = 0.102303, Final residual = 0.000487243, No Iterations 4
GAMG:  Solving for p, Initial residual = 0.0140279, Final residual = 0.000133002, No Iterations 16
GAMG:  Solving for p, Initial residual = 0.00754388, Final residual = 7.16843e-05, No Iterations 4
time step continuity errors : sum local = 5.46739e-07, global = 1.87556e-07, cumulative = 2.70488e-08
GAMG:  Solving for p, Initial residual = 0.0476358, Final residual = 0.000213417, No Iterations 4
GAMG:  Solving for p, Initial residual = 0.00681435, Final residual = 6.19035e-05, No Iterations 16
GAMG:  Solving for p, Initial residual = 0.00378545, Final residual = 3.40122e-05, No Iterations 4
time step continuity errors : sum local = 2.61756e-07, global = 9.02507e-08, cumulative = 1.17299e-07
PIMPLE: iteration 2
DILUPBiCG:  Solving for Ux, Initial residual = 0.00995537, Final residual = 5.67427e-05, No Iterations 1
DILUPBiCG:  Solving for Uy, Initial residual = 0.00215228, Final residual = 4.36478e-06, No Iterations 1
DILUPBiCG:  Solving for Uz, Initial residual = 0.00296027, Final residual = 1.57358e-05, No Iterations 1
GAMG:  Solving for p, Initial residual = 0.0450537, Final residual = 0.000344963, No Iterations 6
GAMG:  Solving for p, Initial residual = 0.0115612, Final residual = 9.73353e-05, No Iterations 14
GAMG:  Solving for p, Initial residual = 0.00457536, Final residual = 4.09689e-05, No Iterations 4
time step continuity errors : sum local = 2.74767e-07, global = -1.02585e-07, cumulative = 1.47147e-08
GAMG:  Solving for p, Initial residual = 0.0241764, Final residual = 0.000158204, No Iterations 6
GAMG:  Solving for p, Initial residual = 0.00625296, Final residual = 6.23567e-05, No Iterations 10
GAMG:  Solving for p, Initial residual = 0.00220906, Final residual = 1.94524e-05, No Iterations 12
time step continuity errors : sum local = 1.30793e-07, global = -3.83314e-08, cumulative = -2.36167e-08
PIMPLE: iteration 3
DILUPBiCG:  Solving for Ux, Initial residual = 0.00189136, Final residual = 3.86844e-06, No Iterations 2
DILUPBiCG:  Solving for Uy, Initial residual = 0.000453028, Final residual = 7.06401e-06, No Iterations 1
DILUPBiCG:  Solving for Uz, Initial residual = 0.0043386, Final residual = 1.82776e-06, No Iterations 2
GAMG:  Solving for p, Initial residual = 0.0500274, Final residual = 0.000363923, No Iterations 5
GAMG:  Solving for p, Initial residual = 0.0112328, Final residual = 0.00010764, No Iterations 14
GAMG:  Solving for p, Initial residual = 0.00605572, Final residual = 5.60546e-05, No Iterations 10
time step continuity errors : sum local = 4.18835e-07, global = -1.1234e-07, cumulative = -1.35956e-07
GAMG:  Solving for p, Initial residual = 0.00275329, Final residual = 2.29664e-05, No Iterations 8
GAMG:  Solving for p, Initial residual = 0.00142527, Final residual = 1.4111e-05, No Iterations 4
GAMG:  Solving for p, Initial residual = 0.000589525, Final residual = 9.99058e-07, No Iterations 23
time step continuity errors : sum local = 7.36465e-09, global = 2.39322e-09, cumulative = -1.33563e-07
DILUPBiCG:  Solving for omega, Initial residual = 0.00143209, Final residual = 7.42714e-07, No Iterations 1
DILUPBiCG:  Solving for k, Initial residual = 0.00368353, Final residual = 5.85357e-07, No Iterations 2
bounding k, min: 0 max: 0.000659506 average: 0.000154052
ExecutionTime = 38.9 s  ClockTime = 39 s

Courant Number mean: 0.104597 max: 0.236652
Time = 0.495

GAMG:  Solving for cellDisplacementx, Initial residual = 0, Final residual = 0, No Iterations 0
GAMG:  Solving for cellDisplacementy, Initial residual = 0, Final residual = 0, No Iterations 0
GAMG:  Solving for cellDisplacementz, Initial residual = 0, Final residual = 0, No Iterations 0
PIMPLE: iteration 1
DILUPBiCG:  Solving for Ux, Initial residual = 0.0357795, Final residual = 0.000130233, No Iterations 1
DILUPBiCG:  Solving for Uy, Initial residual = 0.00762201, Final residual = 1.52287e-05, No Iterations 1
DILUPBiCG:  Solving for Uz, Initial residual = 0.0141982, Final residual = 1.8474e-05, No Iterations 1
GAMG:  Solving for p, Initial residual = 0.100493, Final residual = 0.000560656, No Iterations 4
GAMG:  Solving for p, Initial residual = 0.013209, Final residual = 0.000115329, No Iterations 16
GAMG:  Solving for p, Initial residual = 0.00692314, Final residual = 5.95972e-05, No Iterations 5
time step continuity errors : sum local = 4.02709e-07, global = 6.71417e-08, cumulative = -6.64215e-08
GAMG:  Solving for p, Initial residual = 0.0475317, Final residual = 0.000273795, No Iterations 4
GAMG:  Solving for p, Initial residual = 0.00638896, Final residual = 6.06272e-05, No Iterations 14
GAMG:  Solving for p, Initial residual = 0.00343237, Final residual = 2.80098e-05, No Iterations 5
time step continuity errors : sum local = 1.90426e-07, global = 2.94907e-08, cumulative = -3.69308e-08
PIMPLE: iteration 2
DILUPBiCG:  Solving for Ux, Initial residual = 0.00870706, Final residual = 4.97668e-05, No Iterations 1
DILUPBiCG:  Solving for Uy, Initial residual = 0.00189577, Final residual = 3.83675e-06, No Iterations 1
DILUPBiCG:  Solving for Uz, Initial residual = 0.00287749, Final residual = 1.63011e-05, No Iterations 1
GAMG:  Solving for p, Initial residual = 0.044881, Final residual = 0.000329028, No Iterations 6
GAMG:  Solving for p, Initial residual = 0.0133729, Final residual = 0.000127958, No Iterations 12
GAMG:  Solving for p, Initial residual = 0.00454376, Final residual = 4.0422e-05, No Iterations 14
time step continuity errors : sum local = 2.38979e-07, global = -7.3933e-08, cumulative = -1.10864e-07
GAMG:  Solving for p, Initial residual = 0.024178, Final residual = 0.000229361, No Iterations 5
GAMG:  Solving for p, Initial residual = 0.00747707, Final residual = 6.55227e-05, No Iterations 9
GAMG:  Solving for p, Initial residual = 0.00221643, Final residual = 2.13934e-05, No Iterations 14
time step continuity errors : sum local = 1.26447e-07, global = -3.84218e-08, cumulative = -1.49286e-07
PIMPLE: iteration 3
DILUPBiCG:  Solving for Ux, Initial residual = 0.00156781, Final residual = 5.92224e-08, No Iterations 3
DILUPBiCG:  Solving for Uy, Initial residual = 0.000377609, Final residual = 9.59401e-06, No Iterations 1
DILUPBiCG:  Solving for Uz, Initial residual = 0.00294777, Final residual = 1.97038e-06, No Iterations 2
GAMG:  Solving for p, Initial residual = 0.0518861, Final residual = 0.000388959, No Iterations 5
GAMG:  Solving for p, Initial residual = 0.0120036, Final residual = 0.000116688, No Iterations 14
GAMG:  Solving for p, Initial residual = 0.00655465, Final residual = 6.1496e-05, No Iterations 10
time step continuity errors : sum local = 4.03355e-07, global = -1.09365e-07, cumulative = -2.58651e-07
GAMG:  Solving for p, Initial residual = 0.0028668, Final residual = 2.36866e-05, No Iterations 8
GAMG:  Solving for p, Initial residual = 0.00146767, Final residual = 1.39719e-05, No Iterations 4
GAMG:  Solving for p, Initial residual = 0.00055338, Final residual = 9.69971e-07, No Iterations 23
time step continuity errors : sum local = 6.26878e-09, global = 2.07204e-09, cumulative = -2.56579e-07
DILUPBiCG:  Solving for omega, Initial residual = 0.001439, Final residual = 7.31512e-07, No Iterations 1
DILUPBiCG:  Solving for k, Initial residual = 0.00364577, Final residual = 5.92072e-07, No Iterations 2
bounding k, min: 0 max: 0.000648496 average: 0.000153125
ExecutionTime = 49.75 s  ClockTime = 50 s

Courant Number mean: 0.102674 max: 0.232332
Time = 0.496

GAMG:  Solving for cellDisplacementx, Initial residual = 0, Final residual = 0, No Iterations 0
GAMG:  Solving for cellDisplacementy, Initial residual = 0, Final residual = 0, No Iterations 0
GAMG:  Solving for cellDisplacementz, Initial residual = 0, Final residual = 0, No Iterations 0
PIMPLE: iteration 1
DILUPBiCG:  Solving for Ux, Initial residual = 0.0308407, Final residual = 0.000112354, No Iterations 1
DILUPBiCG:  Solving for Uy, Initial residual = 0.00664182, Final residual = 1.32484e-05, No Iterations 1
DILUPBiCG:  Solving for Uz, Initial residual = 0.0111275, Final residual = 1.18234e-05, No Iterations 1
GAMG:  Solving for p, Initial residual = 0.0961991, Final residual = 0.000445768, No Iterations 4
GAMG:  Solving for p, Initial residual = 0.0132879, Final residual = 0.000131013, No Iterations 8
GAMG:  Solving for p, Initial residual = 0.00690467, Final residual = 6.27331e-05, No Iterations 4
time step continuity errors : sum local = 3.65445e-07, global = 1.26685e-07, cumulative = -1.29893e-07
GAMG:  Solving for p, Initial residual = 0.0459334, Final residual = 0.000212515, No Iterations 4
GAMG:  Solving for p, Initial residual = 0.00639179, Final residual = 5.77762e-05, No Iterations 10
GAMG:  Solving for p, Initial residual = 0.00351013, Final residual = 2.76852e-05, No Iterations 4
time step continuity errors : sum local = 1.62687e-07, global = 5.74761e-08, cumulative = -7.24173e-08
PIMPLE: iteration 2
DILUPBiCG:  Solving for Ux, Initial residual = 0.00736536, Final residual = 4.22483e-05, No Iterations 1
DILUPBiCG:  Solving for Uy, Initial residual = 0.00161951, Final residual = 3.30057e-06, No Iterations 1
DILUPBiCG:  Solving for Uz, Initial residual = 0.0030469, Final residual = 2.95999e-05, No Iterations 1
GAMG:  Solving for p, Initial residual = 0.0428004, Final residual = 0.000360443, No Iterations 6
GAMG:  Solving for p, Initial residual = 0.0138808, Final residual = 0.000120376, No Iterations 12
GAMG:  Solving for p, Initial residual = 0.00467018, Final residual = 4.45421e-05, No Iterations 12
time step continuity errors : sum local = 2.28089e-07, global = -6.68947e-08, cumulative = -1.39312e-07
GAMG:  Solving for p, Initial residual = 0.0231364, Final residual = 0.000165649, No Iterations 6
GAMG:  Solving for p, Initial residual = 0.00750321, Final residual = 6.34426e-05, No Iterations 10
GAMG:  Solving for p, Initial residual = 0.00218665, Final residual = 1.98868e-05, No Iterations 14
time step continuity errors : sum local = 1.01937e-07, global = -3.10832e-08, cumulative = -1.70395e-07
PIMPLE: iteration 3
DILUPBiCG:  Solving for Ux, Initial residual = 0.0012598, Final residual = 2.15664e-06, No Iterations 2
DILUPBiCG:  Solving for Uy, Initial residual = 0.000312608, Final residual = 2.58654e-07, No Iterations 2
DILUPBiCG:  Solving for Uz, Initial residual = 0.00319431, Final residual = 3.07114e-06, No Iterations 2
GAMG:  Solving for p, Initial residual = 0.0554745, Final residual = 0.000396231, No Iterations 5
GAMG:  Solving for p, Initial residual = 0.0120845, Final residual = 0.000119365, No Iterations 14
GAMG:  Solving for p, Initial residual = 0.00680095, Final residual = 6.29418e-05, No Iterations 10
time step continuity errors : sum local = 3.56244e-07, global = -9.80694e-08, cumulative = -2.68465e-07
GAMG:  Solving for p, Initial residual = 0.00291326, Final residual = 2.47187e-05, No Iterations 8
GAMG:  Solving for p, Initial residual = 0.00150837, Final residual = 1.10048e-05, No Iterations 6
GAMG:  Solving for p, Initial residual = 0.00060755, Final residual = 8.81217e-07, No Iterations 27
time step continuity errors : sum local = 4.91476e-09, global = 1.51263e-09, cumulative = -2.66952e-07
DILUPBiCG:  Solving for omega, Initial residual = 0.00144211, Final residual = 7.2143e-07, No Iterations 1
DILUPBiCG:  Solving for k, Initial residual = 0.00360832, Final residual = 6.02028e-07, No Iterations 2
bounding k, min: 0 max: 0.000637241 average: 0.000152222
ExecutionTime = 60.3 s  ClockTime = 61 s

Courant Number mean: 0.101092 max: 0.228729
Time = 0.497

GAMG:  Solving for cellDisplacementx, Initial residual = 0, Final residual = 0, No Iterations 0
GAMG:  Solving for cellDisplacementy, Initial residual = 0, Final residual = 0, No Iterations 0
GAMG:  Solving for cellDisplacementz, Initial residual = 0, Final residual = 0, No Iterations 0
PIMPLE: iteration 1
DILUPBiCG:  Solving for Ux, Initial residual = 0.0257314, Final residual = 9.37798e-05, No Iterations 1
DILUPBiCG:  Solving for Uy, Initial residual = 0.00558034, Final residual = 1.11174e-05, No Iterations 1
DILUPBiCG:  Solving for Uz, Initial residual = 0.0112571, Final residual = 1.90288e-05, No Iterations 1
GAMG:  Solving for p, Initial residual = 0.0934546, Final residual = 0.000715666, No Iterations 3
GAMG:  Solving for p, Initial residual = 0.012304, Final residual = 7.64676e-05, No Iterations 5
GAMG:  Solving for p, Initial residual = 0.00572374, Final residual = 4.57222e-05, No Iterations 4
time step continuity errors : sum local = 2.22499e-07, global = 7.16708e-08, cumulative = -1.95281e-07
GAMG:  Solving for p, Initial residual = 0.0458505, Final residual = 0.000300056, No Iterations 3
GAMG:  Solving for p, Initial residual = 0.00602271, Final residual = 5.3207e-05, No Iterations 5
GAMG:  Solving for p, Initial residual = 0.00296062, Final residual = 2.16821e-05, No Iterations 4
time step continuity errors : sum local = 1.06156e-07, global = 3.59081e-08, cumulative = -1.59373e-07
PIMPLE: iteration 2
DILUPBiCG:  Solving for Ux, Initial residual = 0.00595877, Final residual = 3.45908e-05, No Iterations 1
DILUPBiCG:  Solving for Uy, Initial residual = 0.00132057, Final residual = 2.72524e-06, No Iterations 1
DILUPBiCG:  Solving for Uz, Initial residual = 0.00311651, Final residual = 2.6864e-05, No Iterations 1
GAMG:  Solving for p, Initial residual = 0.0423262, Final residual = 0.000359874, No Iterations 6
GAMG:  Solving for p, Initial residual = 0.0173459, Final residual = 0.000173177, No Iterations 9
GAMG:  Solving for p, Initial residual = 0.00447273, Final residual = 4.15253e-05, No Iterations 17
time step continuity errors : sum local = 1.77087e-07, global = -4.95004e-08, cumulative = -2.08873e-07
GAMG:  Solving for p, Initial residual = 0.0225667, Final residual = 0.000165844, No Iterations 6
GAMG:  Solving for p, Initial residual = 0.00905697, Final residual = 8.11712e-05, No Iterations 7
GAMG:  Solving for p, Initial residual = 0.00208923, Final residual = 2.06696e-05, No Iterations 17
time step continuity errors : sum local = 8.80331e-08, global = -2.46723e-08, cumulative = -2.33546e-07
PIMPLE: iteration 3
DILUPBiCG:  Solving for Ux, Initial residual = 0.000914429, Final residual = 8.15647e-07, No Iterations 2
DILUPBiCG:  Solving for Uy, Initial residual = 0.000228327, Final residual = 7.04325e-06, No Iterations 1
DILUPBiCG:  Solving for Uz, Initial residual = 0.00214965, Final residual = 2.07817e-06, No Iterations 2
GAMG:  Solving for p, Initial residual = 0.0597612, Final residual = 0.000427215, No Iterations 5
GAMG:  Solving for p, Initial residual = 0.0129662, Final residual = 0.000112703, No Iterations 16
GAMG:  Solving for p, Initial residual = 0.00782032, Final residual = 7.21323e-05, No Iterations 8
time step continuity errors : sum local = 3.36784e-07, global = -7.73249e-08, cumulative = -3.10871e-07
GAMG:  Solving for p, Initial residual = 0.0030294, Final residual = 2.2854e-05, No Iterations 8
GAMG:  Solving for p, Initial residual = 0.00162671, Final residual = 1.50269e-05, No Iterations 4
GAMG:  Solving for p, Initial residual = 0.000580214, Final residual = 9.70252e-07, No Iterations 29
time step continuity errors : sum local = 4.46299e-09, global = 1.35994e-09, cumulative = -3.09511e-07
DILUPBiCG:  Solving for omega, Initial residual = 0.00144153, Final residual = 7.12994e-07, No Iterations 1
DILUPBiCG:  Solving for k, Initial residual = 0.00357068, Final residual = 6.20366e-07, No Iterations 2
bounding k, min: 0 max: 0.000625786 average: 0.000151344
ExecutionTime = 70.67 s  ClockTime = 71 s

Courant Number mean: 0.0998506 max: 0.22586
Time = 0.498

GAMG:  Solving for cellDisplacementx, Initial residual = 0, Final residual = 0, No Iterations 0
GAMG:  Solving for cellDisplacementy, Initial residual = 0, Final residual = 0, No Iterations 0
GAMG:  Solving for cellDisplacementz, Initial residual = 0, Final residual = 0, No Iterations 0
PIMPLE: iteration 1
DILUPBiCG:  Solving for Ux, Initial residual = 0.0202987, Final residual = 7.42622e-05, No Iterations 1
DILUPBiCG:  Solving for Uy, Initial residual = 0.00444974, Final residual = 8.90205e-06, No Iterations 1
DILUPBiCG:  Solving for Uz, Initial residual = 0.00867158, Final residual = 1.2656e-05, No Iterations 1
GAMG:  Solving for p, Initial residual = 0.0877866, Final residual = 0.000373091, No Iterations 4
GAMG:  Solving for p, Initial residual = 0.0134357, Final residual = 0.000126611, No Iterations 8
GAMG:  Solving for p, Initial residual = 0.00644267, Final residual = 6.12161e-05, No Iterations 6
time step continuity errors : sum local = 2.38922e-07, global = -7.84386e-08, cumulative = -3.87949e-07
GAMG:  Solving for p, Initial residual = 0.043569, Final residual = 0.000186811, No Iterations 4
GAMG:  Solving for p, Initial residual = 0.00674888, Final residual = 5.54448e-05, No Iterations 10
GAMG:  Solving for p, Initial residual = 0.00324333, Final residual = 2.72408e-05, No Iterations 6
time step continuity errors : sum local = 1.06348e-07, global = -3.28425e-08, cumulative = -4.20792e-07
PIMPLE: iteration 2
DILUPBiCG:  Solving for Ux, Initial residual = 0.00451787, Final residual = 2.68093e-05, No Iterations 1
DILUPBiCG:  Solving for Uy, Initial residual = 0.00101562, Final residual = 2.21082e-06, No Iterations 1
DILUPBiCG:  Solving for Uz, Initial residual = 0.00317057, Final residual = 3.81214e-05, No Iterations 1
GAMG:  Solving for p, Initial residual = 0.0401455, Final residual = 0.000345262, No Iterations 8
GAMG:  Solving for p, Initial residual = 0.0217135, Final residual = 0.000216544, No Iterations 5
GAMG:  Solving for p, Initial residual = 0.00421092, Final residual = 4.12977e-05, No Iterations 19
time step continuity errors : sum local = 1.39485e-07, global = -3.98176e-08, cumulative = -4.60609e-07
GAMG:  Solving for p, Initial residual = 0.0216534, Final residual = 0.0001895, No Iterations 6
GAMG:  Solving for p, Initial residual = 0.0106562, Final residual = 0.000103942, No Iterations 6
GAMG:  Solving for p, Initial residual = 0.00217281, Final residual = 1.97483e-05, No Iterations 20
time step continuity errors : sum local = 6.68557e-08, global = -1.89528e-08, cumulative = -4.79562e-07
PIMPLE: iteration 3
DILUPBiCG:  Solving for Ux, Initial residual = 0.00057119, Final residual = 7.2242e-06, No Iterations 1
DILUPBiCG:  Solving for Uy, Initial residual = 0.00015441, Final residual = 1.9076e-06, No Iterations 1
DILUPBiCG:  Solving for Uz, Initial residual = 0.00215911, Final residual = 1.83679e-06, No Iterations 2
GAMG:  Solving for p, Initial residual = 0.0680817, Final residual = 0.000458824, No Iterations 5
GAMG:  Solving for p, Initial residual = 0.0134094, Final residual = 0.000124699, No Iterations 16
GAMG:  Solving for p, Initial residual = 0.00872714, Final residual = 7.74406e-05, No Iterations 8
time step continuity errors : sum local = 2.84254e-07, global = -6.78082e-08, cumulative = -5.4737e-07
GAMG:  Solving for p, Initial residual = 0.00311549, Final residual = 3.05614e-05, No Iterations 7
GAMG:  Solving for p, Initial residual = 0.00165979, Final residual = 1.53855e-05, No Iterations 5
GAMG:  Solving for p, Initial residual = 0.000621092, Final residual = 9.13642e-07, No Iterations 31
time step continuity errors : sum local = 3.30504e-09, global = 9.94371e-10, cumulative = -5.46376e-07
DILUPBiCG:  Solving for omega, Initial residual = 0.00143755, Final residual = 7.05992e-07, No Iterations 1
DILUPBiCG:  Solving for k, Initial residual = 0.00353301, Final residual = 6.37286e-07, No Iterations 2
bounding k, min: 0 max: 0.000613972 average: 0.000150493
ExecutionTime = 77.33 s  ClockTime = 78 s

Courant Number mean: 0.0989589 max: 0.22373
Time = 0.499

GAMG:  Solving for cellDisplacementx, Initial residual = 0, Final residual = 0, No Iterations 0
GAMG:  Solving for cellDisplacementy, Initial residual = 0, Final residual = 0, No Iterations 0
GAMG:  Solving for cellDisplacementz, Initial residual = 0, Final residual = 0, No Iterations 0
PIMPLE: iteration 1
DILUPBiCG:  Solving for Ux, Initial residual = 0.014781, Final residual = 5.41594e-05, No Iterations 1
DILUPBiCG:  Solving for Uy, Initial residual = 0.00328989, Final residual = 6.6779e-06, No Iterations 1
DILUPBiCG:  Solving for Uz, Initial residual = 0.0100454, Final residual = 2.10327e-05, No Iterations 1
GAMG:  Solving for p, Initial residual = 0.0834235, Final residual = 0.000634182, No Iterations 4
GAMG:  Solving for p, Initial residual = 0.0205193, Final residual = 0.000202421, No Iterations 8
GAMG:  Solving for p, Initial residual = 0.00649032, Final residual = 6.17084e-05, No Iterations 14
time step continuity errors : sum local = 1.75666e-07, global = -5.2114e-08, cumulative = -5.9849e-07
GAMG:  Solving for p, Initial residual = 0.0428206, Final residual = 0.000299115, No Iterations 4
GAMG:  Solving for p, Initial residual = 0.0103761, Final residual = 9.89056e-05, No Iterations 8
GAMG:  Solving for p, Initial residual = 0.00310939, Final residual = 3.02668e-05, No Iterations 14
time step continuity errors : sum local = 8.59362e-08, global = -2.53625e-08, cumulative = -6.23852e-07
PIMPLE: iteration 2
DILUPBiCG:  Solving for Ux, Initial residual = 0.0030252, Final residual = 2.02197e-05, No Iterations 1
DILUPBiCG:  Solving for Uy, Initial residual = 0.000696431, Final residual = 1.84777e-06, No Iterations 1
DILUPBiCG:  Solving for Uz, Initial residual = 0.00326191, Final residual = 3.23893e-05, No Iterations 1
GAMG:  Solving for p, Initial residual = 0.0395726, Final residual = 0.000368897, No Iterations 8
GAMG:  Solving for p, Initial residual = 0.0280024, Final residual = 0.000240827, No Iterations 5
GAMG:  Solving for p, Initial residual = 0.00486735, Final residual = 4.35758e-05, No Iterations 21
time step continuity errors : sum local = 1.07495e-07, global = -3.06157e-08, cumulative = -6.54468e-07
GAMG:  Solving for p, Initial residual = 0.0213864, Final residual = 0.000175811, No Iterations 8
GAMG:  Solving for p, Initial residual = 0.0135435, Final residual = 0.000112891, No Iterations 5
GAMG:  Solving for p, Initial residual = 0.00237154, Final residual = 2.28638e-05, No Iterations 19
time step continuity errors : sum local = 5.63356e-08, global = -1.58225e-08, cumulative = -6.70291e-07
PIMPLE: iteration 3
DILUPBiCG:  Solving for Ux, Initial residual = 0.000227002, Final residual = 1.86803e-06, No Iterations 1
DILUPBiCG:  Solving for Uy, Initial residual = 7.89964e-05, Final residual = 5.86967e-07, No Iterations 1
DILUPBiCG:  Solving for Uz, Initial residual = 0.0015, Final residual = 6.57525e-07, No Iterations 2
GAMG:  Solving for p, Initial residual = 0.0817135, Final residual = 0.000782995, No Iterations 3
GAMG:  Solving for p, Initial residual = 0.01411, Final residual = 0.000127808, No Iterations 20
GAMG:  Solving for p, Initial residual = 0.0135956, Final residual = 0.00013101, No Iterations 4
time step continuity errors : sum local = 3.43137e-07, global = -5.76268e-08, cumulative = -7.27918e-07
GAMG:  Solving for p, Initial residual = 0.00373763, Final residual = 3.17094e-05, No Iterations 8
GAMG:  Solving for p, Initial residual = 0.00198462, Final residual = 1.9773e-05, No Iterations 4
GAMG:  Solving for p, Initial residual = 0.00067624, Final residual = 8.90782e-07, No Iterations 29
time step continuity errors : sum local = 2.29141e-09, global = 7.69747e-10, cumulative = -7.27148e-07
DILUPBiCG:  Solving for omega, Initial residual = 0.0014301, Final residual = 7.00625e-07, No Iterations 1
DILUPBiCG:  Solving for k, Initial residual = 0.00349478, Final residual = 6.57646e-07, No Iterations 2
bounding k, min: 0 max: 0.000601898 average: 0.000149669
ExecutionTime = 81.28 s  ClockTime = 82 s

Courant Number mean: 0.0984177 max: 0.222445
Time = 0.5

GAMG:  Solving for cellDisplacementx, Initial residual = 0, Final residual = 0, No Iterations 0
GAMG:  Solving for cellDisplacementy, Initial residual = 0, Final residual = 0, No Iterations 0
GAMG:  Solving for cellDisplacementz, Initial residual = 0, Final residual = 0, No Iterations 0
PIMPLE: iteration 1
DILUPBiCG:  Solving for Ux, Initial residual = 0.00918036, Final residual = 3.4009e-05, No Iterations 1
DILUPBiCG:  Solving for Uy, Initial residual = 0.00211825, Final residual = 4.45717e-06, No Iterations 1
DILUPBiCG:  Solving for Uz, Initial residual = 0.00958965, Final residual = 1.8147e-05, No Iterations 1
GAMG:  Solving for p, Initial residual = 0.079799, Final residual = 0.000763151, No Iterations 6
GAMG:  Solving for p, Initial residual = 0.0479127, Final residual = 0.000469295, No Iterations 4
GAMG:  Solving for p, Initial residual = 0.00853072, Final residual = 7.76268e-05, No Iterations 21
time step continuity errors : sum local = 1.36225e-07, global = -3.96502e-08, cumulative = -7.66798e-07
GAMG:  Solving for p, Initial residual = 0.0436408, Final residual = 0.000428229, No Iterations 5
GAMG:  Solving for p, Initial residual = 0.0232615, Final residual = 0.000221598, No Iterations 4
GAMG:  Solving for p, Initial residual = 0.00438824, Final residual = 3.82923e-05, No Iterations 14
time step continuity errors : sum local = 6.65173e-08, global = -1.93177e-08, cumulative = -7.86116e-07
PIMPLE: iteration 2
DILUPBiCG:  Solving for Ux, Initial residual = 0.00151904, Final residual = 2.88927e-05, No Iterations 1
DILUPBiCG:  Solving for Uy, Initial residual = 0.000379976, Final residual = 5.28842e-06, No Iterations 1
DILUPBiCG:  Solving for Uz, Initial residual = 0.00315458, Final residual = 3.96624e-05, No Iterations 1
GAMG:  Solving for p, Initial residual = 0.0412815, Final residual = 0.000364048, No Iterations 13
GAMG:  Solving for p, Initial residual = 0.0372629, Final residual = 0.000352276, No Iterations 5
GAMG:  Solving for p, Initial residual = 0.00665872, Final residual = 6.41871e-05, No Iterations 19
time step continuity errors : sum local = 9.94715e-08, global = -2.8231e-08, cumulative = -8.14347e-07
GAMG:  Solving for p, Initial residual = 0.0230416, Final residual = 0.000216632, No Iterations 9
GAMG:  Solving for p, Initial residual = 0.0169593, Final residual = 0.000168363, No Iterations 6
GAMG:  Solving for p, Initial residual = 0.00327845, Final residual = 3.19869e-05, No Iterations 20
time step continuity errors : sum local = 4.96656e-08, global = -1.41178e-08, cumulative = -8.28464e-07
PIMPLE: iteration 3
DILUPBiCG:  Solving for Ux, Initial residual = 0.000189944, Final residual = 1.78039e-06, No Iterations 1
DILUPBiCG:  Solving for Uy, Initial residual = 7.19406e-05, Final residual = 6.11271e-07, No Iterations 1
DILUPBiCG:  Solving for Uz, Initial residual = 0.00128302, Final residual = 4.83124e-07, No Iterations 2
GAMG:  Solving for p, Initial residual = 0.113655, Final residual = 0.00101909, No Iterations 3
GAMG:  Solving for p, Initial residual = 0.0165604, Final residual = 0.0001608, No Iterations 20
GAMG:  Solving for p, Initial residual = 0.0181609, Final residual = 0.00017947, No Iterations 4
time step continuity errors : sum local = 2.79322e-07, global = -4.51937e-08, cumulative = -8.73658e-07
GAMG:  Solving for p, Initial residual = 0.00479685, Final residual = 3.98708e-05, No Iterations 8
GAMG:  Solving for p, Initial residual = 0.00241379, Final residual = 2.35727e-05, No Iterations 4
GAMG:  Solving for p, Initial residual = 0.000801305, Final residual = 9.35362e-07, No Iterations 24
time step continuity errors : sum local = 1.4221e-09, global = -3.18155e-10, cumulative = -8.73976e-07
DILUPBiCG:  Solving for omega, Initial residual = 0.0014196, Final residual = 6.96946e-07, No Iterations 1
DILUPBiCG:  Solving for k, Initial residual = 0.00345605, Final residual = 6.77209e-07, No Iterations 2
bounding k, min: 0 max: 0.000589647 average: 0.000148875
ExecutionTime = 83.92 s  ClockTime = 84 s

End

