/*---------------------------------------------------------------------------*\
| =========                 |                                                 |
| \\      /  F ield         | OpenFOAM: The Open Source CFD Toolbox           |
|  \\    /   O peration     | Version:  2.3.1                                 |
|   \\  /    A nd           | Web:      www.OpenFOAM.org                      |
|    \\/     M anipulation  |                                                 |
\*---------------------------------------------------------------------------*/
Build  : 2.3.1-262087cdf8db
Exec   : pimpleDyMFoam
Date   : Jun 04 2023
Time   : 16:53:35
Host   : "jcosson-VirtualBox"
PID    : 3950
Case   : /home/jcosson/workspace/henersj_shootingdata/calcs/moderate_deformed/primal/10_intervals_04-06-23/sweep3/interval7
nProcs : 1
sigFpe : Enabling floating point exception trapping (FOAM_SIGFPE).
fileModificationChecking : Monitoring run-time modified files using timeStampMaster
allowSystemOperations : Allowing user-supplied system call operations

// * * * * * * * * * * * * * * * * * * * * * * * * * * * * * * * * * * * * * //
Create time

Create mesh for time = 0.46

Selecting dynamicFvMesh dynamicMotionSolverFvMesh
Selecting motion solver: displacementLaplacian
Selecting motion diffusion: quadratic
Selecting motion diffusion: quadratic
Selecting motion diffusion: inverseDistance

PIMPLE: no residual control data found. Calculations will employ 3 corrector loops

Reading field p

Reading field U

Reading/calculating face flux field phi

Selecting incompressible transport model Newtonian
Selecting turbulence model type RASModel
Selecting RAS turbulence model kOmegaSST
kOmegaSSTCoeffs
{
    alphaK1         0.85034;
    alphaK2         1;
    alphaOmega1     0.5;
    alphaOmega2     0.85616;
    gamma1          0.5532;
    gamma2          0.4403;
    beta1           0.075;
    beta2           0.0828;
    betaStar        0.09;
    a1              0.31;
    c1              10;
    Cmu             0.09;
    b1              1;
    F3              false;
}

Reading/calculating face velocity Uf

No finite volume options present

Courant Number mean: 0.262425 max: 0.581021

Starting time loop

Courant Number mean: 0.262425 max: 0.581021
Time = 0.461

GAMG:  Solving for cellDisplacementx, Initial residual = 0, Final residual = 0, No Iterations 0
GAMG:  Solving for cellDisplacementy, Initial residual = 0, Final residual = 0, No Iterations 0
GAMG:  Solving for cellDisplacementz, Initial residual = 0, Final residual = 0, No Iterations 0
PIMPLE: iteration 1
DILUPBiCG:  Solving for Ux, Initial residual = 0.024724, Final residual = 9.9771e-05, No Iterations 1
DILUPBiCG:  Solving for Uy, Initial residual = 0.00393246, Final residual = 9.23595e-06, No Iterations 1
DILUPBiCG:  Solving for Uz, Initial residual = 0.0148957, Final residual = 4.08921e-05, No Iterations 1
GAMG:  Solving for p, Initial residual = 0.158898, Final residual = 0.00137724, No Iterations 6
GAMG:  Solving for p, Initial residual = 0.0194489, Final residual = 0.000184607, No Iterations 18
GAMG:  Solving for p, Initial residual = 0.00794348, Final residual = 7.20485e-05, No Iterations 12
time step continuity errors : sum local = 6.21743e-07, global = 1.87497e-07, cumulative = 1.87497e-07
GAMG:  Solving for p, Initial residual = 0.0642643, Final residual = 0.00043724, No Iterations 6
GAMG:  Solving for p, Initial residual = 0.00969989, Final residual = 8.68391e-05, No Iterations 16
GAMG:  Solving for p, Initial residual = 0.00413564, Final residual = 3.48915e-05, No Iterations 12
time step continuity errors : sum local = 2.99463e-07, global = 8.95664e-08, cumulative = 2.77064e-07
PIMPLE: iteration 2
DILUPBiCG:  Solving for Ux, Initial residual = 0.0078124, Final residual = 3.63653e-05, No Iterations 1
DILUPBiCG:  Solving for Uy, Initial residual = 0.00130428, Final residual = 3.73535e-06, No Iterations 1
DILUPBiCG:  Solving for Uz, Initial residual = 0.00405686, Final residual = 1.29066e-05, No Iterations 1
GAMG:  Solving for p, Initial residual = 0.0661411, Final residual = 0.00040353, No Iterations 4
GAMG:  Solving for p, Initial residual = 0.0109014, Final residual = 9.49307e-05, No Iterations 14
GAMG:  Solving for p, Initial residual = 0.00502012, Final residual = 4.36217e-05, No Iterations 8
time step continuity errors : sum local = 3.16477e-07, global = -1.03709e-07, cumulative = 1.73355e-07
GAMG:  Solving for p, Initial residual = 0.0333616, Final residual = 0.000170116, No Iterations 4
GAMG:  Solving for p, Initial residual = 0.00533324, Final residual = 5.2877e-05, No Iterations 10
GAMG:  Solving for p, Initial residual = 0.0023755, Final residual = 2.29212e-05, No Iterations 8
time step continuity errors : sum local = 1.67165e-07, global = -5.08982e-08, cumulative = 1.22457e-07
PIMPLE: iteration 3
DILUPBiCG:  Solving for Ux, Initial residual = 0.00215815, Final residual = 5.30679e-07, No Iterations 2
DILUPBiCG:  Solving for Uy, Initial residual = 0.00035734, Final residual = 6.74936e-06, No Iterations 1
DILUPBiCG:  Solving for Uz, Initial residual = 0.00541286, Final residual = 1.42553e-06, No Iterations 2
GAMG:  Solving for p, Initial residual = 0.0431379, Final residual = 0.000336229, No Iterations 5
GAMG:  Solving for p, Initial residual = 0.00989248, Final residual = 9.68286e-05, No Iterations 13
GAMG:  Solving for p, Initial residual = 0.00456591, Final residual = 3.78379e-05, No Iterations 12
time step continuity errors : sum local = 3.05843e-07, global = -8.96767e-08, cumulative = 3.278e-08
GAMG:  Solving for p, Initial residual = 0.00305205, Final residual = 3.02631e-05, No Iterations 16
GAMG:  Solving for p, Initial residual = 0.00171861, Final residual = 1.5539e-05, No Iterations 4
GAMG:  Solving for p, Initial residual = 0.00064426, Final residual = 8.64937e-07, No Iterations 40
time step continuity errors : sum local = 6.98167e-09, global = 2.07606e-09, cumulative = 3.48561e-08
DILUPBiCG:  Solving for omega, Initial residual = 0.00067846, Final residual = 1.26094e-06, No Iterations 1
DILUPBiCG:  Solving for k, Initial residual = 0.00481425, Final residual = 1.23226e-06, No Iterations 2
ExecutionTime = 9.6 s  ClockTime = 10 s

Courant Number mean: 0.258948 max: 0.572759
Time = 0.462

GAMG:  Solving for cellDisplacementx, Initial residual = 0, Final residual = 0, No Iterations 0
GAMG:  Solving for cellDisplacementy, Initial residual = 0, Final residual = 0, No Iterations 0
GAMG:  Solving for cellDisplacementz, Initial residual = 0, Final residual = 0, No Iterations 0
PIMPLE: iteration 1
DILUPBiCG:  Solving for Ux, Initial residual = 0.0273107, Final residual = 0.000111512, No Iterations 1
DILUPBiCG:  Solving for Uy, Initial residual = 0.00433295, Final residual = 1.01187e-05, No Iterations 1
DILUPBiCG:  Solving for Uz, Initial residual = 0.0135175, Final residual = 3.78011e-05, No Iterations 1
GAMG:  Solving for p, Initial residual = 0.13479, Final residual = 0.00117169, No Iterations 8
GAMG:  Solving for p, Initial residual = 0.0156732, Final residual = 0.000151608, No Iterations 18
GAMG:  Solving for p, Initial residual = 0.00633681, Final residual = 6.16986e-05, No Iterations 12
time step continuity errors : sum local = 5.76271e-07, global = 1.73481e-07, cumulative = 2.08337e-07
GAMG:  Solving for p, Initial residual = 0.0545671, Final residual = 0.00042533, No Iterations 6
GAMG:  Solving for p, Initial residual = 0.00782215, Final residual = 7.23712e-05, No Iterations 18
GAMG:  Solving for p, Initial residual = 0.00340087, Final residual = 2.78862e-05, No Iterations 12
time step continuity errors : sum local = 2.5904e-07, global = 7.66879e-08, cumulative = 2.85025e-07
PIMPLE: iteration 2
DILUPBiCG:  Solving for Ux, Initial residual = 0.008547, Final residual = 4.18275e-05, No Iterations 1
DILUPBiCG:  Solving for Uy, Initial residual = 0.00142871, Final residual = 3.90158e-06, No Iterations 1
DILUPBiCG:  Solving for Uz, Initial residual = 0.00395106, Final residual = 1.26593e-05, No Iterations 1
GAMG:  Solving for p, Initial residual = 0.0557497, Final residual = 0.000422564, No Iterations 4
GAMG:  Solving for p, Initial residual = 0.0088616, Final residual = 8.17547e-05, No Iterations 16
GAMG:  Solving for p, Initial residual = 0.00420577, Final residual = 3.9359e-05, No Iterations 8
time step continuity errors : sum local = 3.08459e-07, global = -1.0966e-07, cumulative = 1.75365e-07
GAMG:  Solving for p, Initial residual = 0.0281745, Final residual = 0.000176769, No Iterations 4
GAMG:  Solving for p, Initial residual = 0.00423754, Final residual = 3.6792e-05, No Iterations 14
GAMG:  Solving for p, Initial residual = 0.00193584, Final residual = 1.73127e-05, No Iterations 8
time step continuity errors : sum local = 1.36449e-07, global = -4.45496e-08, cumulative = 1.30816e-07
PIMPLE: iteration 3
DILUPBiCG:  Solving for Ux, Initial residual = 0.00232264, Final residual = 4.24713e-06, No Iterations 2
DILUPBiCG:  Solving for Uy, Initial residual = 0.00038447, Final residual = 7.00955e-06, No Iterations 1
DILUPBiCG:  Solving for Uz, Initial residual = 0.00576401, Final residual = 1.5318e-06, No Iterations 2
GAMG:  Solving for p, Initial residual = 0.0403473, Final residual = 0.000336588, No Iterations 5
GAMG:  Solving for p, Initial residual = 0.009267, Final residual = 8.37134e-05, No Iterations 15
GAMG:  Solving for p, Initial residual = 0.00434249, Final residual = 3.73205e-05, No Iterations 10
time step continuity errors : sum local = 3.2634e-07, global = -8.53e-08, cumulative = 4.55158e-08
GAMG:  Solving for p, Initial residual = 0.00280321, Final residual = 2.52237e-05, No Iterations 20
GAMG:  Solving for p, Initial residual = 0.00162507, Final residual = 1.38959e-05, No Iterations 4
GAMG:  Solving for p, Initial residual = 0.000608898, Final residual = 8.61936e-07, No Iterations 38
time step continuity errors : sum local = 7.53259e-09, global = 2.23119e-09, cumulative = 4.7747e-08
DILUPBiCG:  Solving for omega, Initial residual = 0.000635571, Final residual = 1.29371e-06, No Iterations 1
DILUPBiCG:  Solving for k, Initial residual = 0.00483325, Final residual = 1.24124e-06, No Iterations 2
ExecutionTime = 17.93 s  ClockTime = 18 s

Courant Number mean: 0.255195 max: 0.563815
Time = 0.463

GAMG:  Solving for cellDisplacementx, Initial residual = 0, Final residual = 0, No Iterations 0
GAMG:  Solving for cellDisplacementy, Initial residual = 0, Final residual = 0, No Iterations 0
GAMG:  Solving for cellDisplacementz, Initial residual = 0, Final residual = 0, No Iterations 0
PIMPLE: iteration 1
DILUPBiCG:  Solving for Ux, Initial residual = 0.029881, Final residual = 0.000123092, No Iterations 1
DILUPBiCG:  Solving for Uy, Initial residual = 0.00474687, Final residual = 1.1075e-05, No Iterations 1
DILUPBiCG:  Solving for Uz, Initial residual = 0.0132067, Final residual = 3.68186e-05, No Iterations 1
GAMG:  Solving for p, Initial residual = 0.132543, Final residual = 0.00130308, No Iterations 6
GAMG:  Solving for p, Initial residual = 0.0152319, Final residual = 0.000148925, No Iterations 20
GAMG:  Solving for p, Initial residual = 0.00642276, Final residual = 5.84241e-05, No Iterations 12
time step continuity errors : sum local = 5.85297e-07, global = 1.76282e-07, cumulative = 2.24029e-07
GAMG:  Solving for p, Initial residual = 0.053959, Final residual = 0.00041364, No Iterations 6
GAMG:  Solving for p, Initial residual = 0.0076286, Final residual = 7.06436e-05, No Iterations 18
GAMG:  Solving for p, Initial residual = 0.00333288, Final residual = 2.75535e-05, No Iterations 12
time step continuity errors : sum local = 2.74629e-07, global = 8.14618e-08, cumulative = 3.05491e-07
PIMPLE: iteration 2
DILUPBiCG:  Solving for Ux, Initial residual = 0.00926779, Final residual = 4.7361e-05, No Iterations 1
DILUPBiCG:  Solving for Uy, Initial residual = 0.00155216, Final residual = 4.08094e-06, No Iterations 1
DILUPBiCG:  Solving for Uz, Initial residual = 0.00389605, Final residual = 1.25941e-05, No Iterations 1
GAMG:  Solving for p, Initial residual = 0.0549863, Final residual = 0.000434817, No Iterations 4
GAMG:  Solving for p, Initial residual = 0.00870254, Final residual = 8.26829e-05, No Iterations 16
GAMG:  Solving for p, Initial residual = 0.00412636, Final residual = 3.93338e-05, No Iterations 8
time step continuity errors : sum local = 3.30791e-07, global = -1.14715e-07, cumulative = 1.90776e-07
GAMG:  Solving for p, Initial residual = 0.0278634, Final residual = 0.000182643, No Iterations 4
GAMG:  Solving for p, Initial residual = 0.00416756, Final residual = 3.71778e-05, No Iterations 14
GAMG:  Solving for p, Initial residual = 0.00189823, Final residual = 1.7541e-05, No Iterations 8
time step continuity errors : sum local = 1.48361e-07, global = -4.71216e-08, cumulative = 1.43654e-07
PIMPLE: iteration 3
DILUPBiCG:  Solving for Ux, Initial residual = 0.00248622, Final residual = 1.93563e-06, No Iterations 2
DILUPBiCG:  Solving for Uy, Initial residual = 0.000412656, Final residual = 7.15601e-06, No Iterations 1
DILUPBiCG:  Solving for Uz, Initial residual = 0.00604857, Final residual = 1.66083e-06, No Iterations 2
GAMG:  Solving for p, Initial residual = 0.0400394, Final residual = 0.000335046, No Iterations 5
GAMG:  Solving for p, Initial residual = 0.00918547, Final residual = 8.34819e-05, No Iterations 15
GAMG:  Solving for p, Initial residual = 0.00432834, Final residual = 3.75394e-05, No Iterations 10
time step continuity errors : sum local = 3.52625e-07, global = -9.21927e-08, cumulative = 5.14615e-08
GAMG:  Solving for p, Initial residual = 0.00273803, Final residual = 2.52273e-05, No Iterations 20
GAMG:  Solving for p, Initial residual = 0.0015825, Final residual = 1.36916e-05, No Iterations 4
GAMG:  Solving for p, Initial residual = 0.000596994, Final residual = 8.66465e-07, No Iterations 38
time step continuity errors : sum local = 8.13147e-09, global = 2.40828e-09, cumulative = 5.38698e-08
DILUPBiCG:  Solving for omega, Initial residual = 0.000594379, Final residual = 1.37283e-06, No Iterations 1
DILUPBiCG:  Solving for k, Initial residual = 0.0048358, Final residual = 1.30823e-06, No Iterations 2
ExecutionTime = 26.17 s  ClockTime = 27 s

Courant Number mean: 0.25118 max: 0.554254
Time = 0.464

GAMG:  Solving for cellDisplacementx, Initial residual = 0, Final residual = 0, No Iterations 0
GAMG:  Solving for cellDisplacementy, Initial residual = 0, Final residual = 0, No Iterations 0
GAMG:  Solving for cellDisplacementz, Initial residual = 0, Final residual = 0, No Iterations 0
PIMPLE: iteration 1
DILUPBiCG:  Solving for Ux, Initial residual = 0.0324259, Final residual = 0.000134382, No Iterations 1
DILUPBiCG:  Solving for Uy, Initial residual = 0.00516104, Final residual = 1.20336e-05, No Iterations 1
DILUPBiCG:  Solving for Uz, Initial residual = 0.0130116, Final residual = 3.61165e-05, No Iterations 1
GAMG:  Solving for p, Initial residual = 0.130574, Final residual = 0.00126032, No Iterations 6
GAMG:  Solving for p, Initial residual = 0.0148746, Final residual = 0.00014562, No Iterations 20
GAMG:  Solving for p, Initial residual = 0.0063214, Final residual = 5.72792e-05, No Iterations 12
time step continuity errors : sum local = 6.11109e-07, global = 1.8412e-07, cumulative = 2.37989e-07
GAMG:  Solving for p, Initial residual = 0.053456, Final residual = 0.000402679, No Iterations 6
GAMG:  Solving for p, Initial residual = 0.00747238, Final residual = 6.91375e-05, No Iterations 18
GAMG:  Solving for p, Initial residual = 0.00328453, Final residual = 2.70661e-05, No Iterations 12
time step continuity errors : sum local = 2.87448e-07, global = 8.52791e-08, cumulative = 3.23268e-07
PIMPLE: iteration 2
DILUPBiCG:  Solving for Ux, Initial residual = 0.00997557, Final residual = 5.2753e-05, No Iterations 1
DILUPBiCG:  Solving for Uy, Initial residual = 0.00167466, Final residual = 4.27083e-06, No Iterations 1
DILUPBiCG:  Solving for Uz, Initial residual = 0.00383441, Final residual = 1.25607e-05, No Iterations 1
GAMG:  Solving for p, Initial residual = 0.0543311, Final residual = 0.000444307, No Iterations 4
GAMG:  Solving for p, Initial residual = 0.0085716, Final residual = 8.35611e-05, No Iterations 16
GAMG:  Solving for p, Initial residual = 0.00405014, Final residual = 3.94468e-05, No Iterations 8
time step continuity errors : sum local = 3.53622e-07, global = -1.20228e-07, cumulative = 2.03041e-07
GAMG:  Solving for p, Initial residual = 0.027588, Final residual = 0.000187413, No Iterations 4
GAMG:  Solving for p, Initial residual = 0.00410811, Final residual = 3.75959e-05, No Iterations 14
GAMG:  Solving for p, Initial residual = 0.00185902, Final residual = 1.78132e-05, No Iterations 8
time step continuity errors : sum local = 1.6061e-07, global = -4.99864e-08, cumulative = 1.53054e-07
PIMPLE: iteration 3
DILUPBiCG:  Solving for Ux, Initial residual = 0.00264571, Final residual = 1.01381e-06, No Iterations 2
DILUPBiCG:  Solving for Uy, Initial residual = 0.000440426, Final residual = 7.25231e-06, No Iterations 1
DILUPBiCG:  Solving for Uz, Initial residual = 0.00632399, Final residual = 1.81141e-06, No Iterations 2
GAMG:  Solving for p, Initial residual = 0.0398064, Final residual = 0.000333956, No Iterations 5
GAMG:  Solving for p, Initial residual = 0.00911608, Final residual = 8.36256e-05, No Iterations 15
GAMG:  Solving for p, Initial residual = 0.00431666, Final residual = 3.81936e-05, No Iterations 10
time step continuity errors : sum local = 3.82768e-07, global = -1.00148e-07, cumulative = 5.29065e-08
GAMG:  Solving for p, Initial residual = 0.00267719, Final residual = 2.48226e-05, No Iterations 20
GAMG:  Solving for p, Initial residual = 0.00154216, Final residual = 1.34039e-05, No Iterations 4
GAMG:  Solving for p, Initial residual = 0.000586569, Final residual = 9.98812e-07, No Iterations 36
time step continuity errors : sum local = 9.99653e-09, global = 2.94754e-09, cumulative = 5.5854e-08
DILUPBiCG:  Solving for omega, Initial residual = 0.000556258, Final residual = 1.51508e-06, No Iterations 1
DILUPBiCG:  Solving for k, Initial residual = 0.00482832, Final residual = 1.38312e-06, No Iterations 2
ExecutionTime = 34.24 s  ClockTime = 35 s

Courant Number mean: 0.246918 max: 0.544128
Time = 0.465

GAMG:  Solving for cellDisplacementx, Initial residual = 0, Final residual = 0, No Iterations 0
GAMG:  Solving for cellDisplacementy, Initial residual = 0, Final residual = 0, No Iterations 0
GAMG:  Solving for cellDisplacementz, Initial residual = 0, Final residual = 0, No Iterations 0
PIMPLE: iteration 1
DILUPBiCG:  Solving for Ux, Initial residual = 0.034947, Final residual = 0.0001454, No Iterations 1
DILUPBiCG:  Solving for Uy, Initial residual = 0.00557498, Final residual = 1.29864e-05, No Iterations 1
DILUPBiCG:  Solving for Uz, Initial residual = 0.0126791, Final residual = 3.51115e-05, No Iterations 1
GAMG:  Solving for p, Initial residual = 0.128776, Final residual = 0.00122201, No Iterations 6
GAMG:  Solving for p, Initial residual = 0.0145423, Final residual = 0.000142523, No Iterations 20
GAMG:  Solving for p, Initial residual = 0.0062213, Final residual = 5.62667e-05, No Iterations 12
time step continuity errors : sum local = 6.35225e-07, global = 1.9139e-07, cumulative = 2.47244e-07
GAMG:  Solving for p, Initial residual = 0.0529778, Final residual = 0.000392773, No Iterations 6
GAMG:  Solving for p, Initial residual = 0.00731862, Final residual = 6.77153e-05, No Iterations 18
GAMG:  Solving for p, Initial residual = 0.00323526, Final residual = 2.67274e-05, No Iterations 12
time step continuity errors : sum local = 3.00504e-07, global = 8.92392e-08, cumulative = 3.36483e-07
PIMPLE: iteration 2
DILUPBiCG:  Solving for Ux, Initial residual = 0.0106682, Final residual = 5.79513e-05, No Iterations 1
DILUPBiCG:  Solving for Uy, Initial residual = 0.00179592, Final residual = 4.46815e-06, No Iterations 1
DILUPBiCG:  Solving for Uz, Initial residual = 0.00377965, Final residual = 1.25976e-05, No Iterations 1
GAMG:  Solving for p, Initial residual = 0.0537176, Final residual = 0.000451916, No Iterations 4
GAMG:  Solving for p, Initial residual = 0.00843606, Final residual = 8.4122e-05, No Iterations 16
GAMG:  Solving for p, Initial residual = 0.00397735, Final residual = 3.95421e-05, No Iterations 8
time step continuity errors : sum local = 3.75496e-07, global = -1.25005e-07, cumulative = 2.11479e-07
GAMG:  Solving for p, Initial residual = 0.0273235, Final residual = 0.0001915, No Iterations 4
GAMG:  Solving for p, Initial residual = 0.00405651, Final residual = 3.78751e-05, No Iterations 14
GAMG:  Solving for p, Initial residual = 0.00182487, Final residual = 1.80266e-05, No Iterations 8
time step continuity errors : sum local = 1.72174e-07, global = -5.24771e-08, cumulative = 1.59001e-07
PIMPLE: iteration 3
DILUPBiCG:  Solving for Ux, Initial residual = 0.00279948, Final residual = 9.38348e-07, No Iterations 2
DILUPBiCG:  Solving for Uy, Initial residual = 0.000467736, Final residual = 7.30474e-06, No Iterations 1
DILUPBiCG:  Solving for Uz, Initial residual = 0.00653426, Final residual = 1.988e-06, No Iterations 2
GAMG:  Solving for p, Initial residual = 0.0396337, Final residual = 0.00033194, No Iterations 5
GAMG:  Solving for p, Initial residual = 0.00905855, Final residual = 8.2691e-05, No Iterations 15
GAMG:  Solving for p, Initial residual = 0.00431933, Final residual = 3.79114e-05, No Iterations 10
time step continuity errors : sum local = 4.0276e-07, global = -1.05362e-07, cumulative = 5.36395e-08
GAMG:  Solving for p, Initial residual = 0.00262666, Final residual = 2.46775e-05, No Iterations 20
GAMG:  Solving for p, Initial residual = 0.0015083, Final residual = 1.32272e-05, No Iterations 4
GAMG:  Solving for p, Initial residual = 0.000577982, Final residual = 9.90359e-07, No Iterations 36
time step continuity errors : sum local = 1.05033e-08, global = 3.09596e-09, cumulative = 5.67354e-08
DILUPBiCG:  Solving for omega, Initial residual = 0.000523244, Final residual = 1.68325e-06, No Iterations 1
DILUPBiCG:  Solving for k, Initial residual = 0.0048193, Final residual = 1.44706e-06, No Iterations 2
ExecutionTime = 42.18 s  ClockTime = 43 s

Courant Number mean: 0.242428 max: 0.533956
Time = 0.466

GAMG:  Solving for cellDisplacementx, Initial residual = 0, Final residual = 0, No Iterations 0
GAMG:  Solving for cellDisplacementy, Initial residual = 0, Final residual = 0, No Iterations 0
GAMG:  Solving for cellDisplacementz, Initial residual = 0, Final residual = 0, No Iterations 0
PIMPLE: iteration 1
DILUPBiCG:  Solving for Ux, Initial residual = 0.0374349, Final residual = 0.000156132, No Iterations 1
DILUPBiCG:  Solving for Uy, Initial residual = 0.00598938, Final residual = 1.39313e-05, No Iterations 1
DILUPBiCG:  Solving for Uz, Initial residual = 0.0124664, Final residual = 3.42811e-05, No Iterations 1
GAMG:  Solving for p, Initial residual = 0.127128, Final residual = 0.00118577, No Iterations 6
GAMG:  Solving for p, Initial residual = 0.0142664, Final residual = 0.000139703, No Iterations 20
GAMG:  Solving for p, Initial residual = 0.00614355, Final residual = 5.52352e-05, No Iterations 12
time step continuity errors : sum local = 6.5604e-07, global = 1.97708e-07, cumulative = 2.54444e-07
GAMG:  Solving for p, Initial residual = 0.0525465, Final residual = 0.000383551, No Iterations 6
GAMG:  Solving for p, Initial residual = 0.0071922, Final residual = 6.64919e-05, No Iterations 18
GAMG:  Solving for p, Initial residual = 0.00319696, Final residual = 2.63021e-05, No Iterations 12
time step continuity errors : sum local = 3.11272e-07, global = 9.24476e-08, cumulative = 3.46891e-07
PIMPLE: iteration 2
DILUPBiCG:  Solving for Ux, Initial residual = 0.0113443, Final residual = 6.29482e-05, No Iterations 1
DILUPBiCG:  Solving for Uy, Initial residual = 0.00191579, Final residual = 4.6706e-06, No Iterations 1
DILUPBiCG:  Solving for Uz, Initial residual = 0.00371552, Final residual = 1.26067e-05, No Iterations 1
GAMG:  Solving for p, Initial residual = 0.0531531, Final residual = 0.000458229, No Iterations 4
GAMG:  Solving for p, Initial residual = 0.00833041, Final residual = 7.30879e-05, No Iterations 18
GAMG:  Solving for p, Initial residual = 0.00395076, Final residual = 3.83209e-05, No Iterations 7
time step continuity errors : sum local = 3.83028e-07, global = 1.38008e-07, cumulative = 4.84899e-07
GAMG:  Solving for p, Initial residual = 0.0271041, Final residual = 0.000192116, No Iterations 4
GAMG:  Solving for p, Initial residual = 0.0040079, Final residual = 3.8148e-05, No Iterations 14
GAMG:  Solving for p, Initial residual = 0.00180347, Final residual = 1.63002e-05, No Iterations 10
time step continuity errors : sum local = 1.64013e-07, global = -4.49518e-08, cumulative = 4.39947e-07
PIMPLE: iteration 3
DILUPBiCG:  Solving for Ux, Initial residual = 0.00294767, Final residual = 1.02002e-06, No Iterations 2
DILUPBiCG:  Solving for Uy, Initial residual = 0.000494102, Final residual = 7.32258e-06, No Iterations 1
DILUPBiCG:  Solving for Uz, Initial residual = 0.00674004, Final residual = 2.18896e-06, No Iterations 2
GAMG:  Solving for p, Initial residual = 0.0395043, Final residual = 0.000329392, No Iterations 5
GAMG:  Solving for p, Initial residual = 0.00901577, Final residual = 8.15543e-05, No Iterations 15
GAMG:  Solving for p, Initial residual = 0.00431479, Final residual = 3.75279e-05, No Iterations 10
time step continuity errors : sum local = 4.20282e-07, global = -1.09862e-07, cumulative = 3.30085e-07
GAMG:  Solving for p, Initial residual = 0.00258022, Final residual = 2.43762e-05, No Iterations 20
GAMG:  Solving for p, Initial residual = 0.00147745, Final residual = 1.29936e-05, No Iterations 4
GAMG:  Solving for p, Initial residual = 0.000570201, Final residual = 9.67718e-07, No Iterations 36
time step continuity errors : sum local = 1.08154e-08, global = 3.1865e-09, cumulative = 3.33272e-07
DILUPBiCG:  Solving for omega, Initial residual = 0.000498356, Final residual = 1.65782e-06, No Iterations 1
DILUPBiCG:  Solving for k, Initial residual = 0.00479686, Final residual = 1.50026e-06, No Iterations 2
ExecutionTime = 50.34 s  ClockTime = 51 s

Courant Number mean: 0.237727 max: 0.523575
Time = 0.467

GAMG:  Solving for cellDisplacementx, Initial residual = 0, Final residual = 0, No Iterations 0
GAMG:  Solving for cellDisplacementy, Initial residual = 0, Final residual = 0, No Iterations 0
GAMG:  Solving for cellDisplacementz, Initial residual = 0, Final residual = 0, No Iterations 0
PIMPLE: iteration 1
DILUPBiCG:  Solving for Ux, Initial residual = 0.0398879, Final residual = 0.000166558, No Iterations 1
DILUPBiCG:  Solving for Uy, Initial residual = 0.00640265, Final residual = 1.48605e-05, No Iterations 1
DILUPBiCG:  Solving for Uz, Initial residual = 0.0121098, Final residual = 3.32271e-05, No Iterations 1
GAMG:  Solving for p, Initial residual = 0.125614, Final residual = 0.00115203, No Iterations 6
GAMG:  Solving for p, Initial residual = 0.0140044, Final residual = 0.000136945, No Iterations 20
GAMG:  Solving for p, Initial residual = 0.00606639, Final residual = 5.4325e-05, No Iterations 12
time step continuity errors : sum local = 6.75178e-07, global = 2.03423e-07, cumulative = 5.36695e-07
GAMG:  Solving for p, Initial residual = 0.0521503, Final residual = 0.00037483, No Iterations 6
GAMG:  Solving for p, Initial residual = 0.0070768, Final residual = 6.52513e-05, No Iterations 18
GAMG:  Solving for p, Initial residual = 0.00315442, Final residual = 2.59844e-05, No Iterations 12
time step continuity errors : sum local = 3.21919e-07, global = 9.56712e-08, cumulative = 6.32366e-07
PIMPLE: iteration 2
DILUPBiCG:  Solving for Ux, Initial residual = 0.0120012, Final residual = 6.77494e-05, No Iterations 1
DILUPBiCG:  Solving for Uy, Initial residual = 0.00203397, Final residual = 4.87564e-06, No Iterations 1
DILUPBiCG:  Solving for Uz, Initial residual = 0.00365954, Final residual = 1.26591e-05, No Iterations 1
GAMG:  Solving for p, Initial residual = 0.0526323, Final residual = 0.000463111, No Iterations 4
GAMG:  Solving for p, Initial residual = 0.00823049, Final residual = 7.33217e-05, No Iterations 18
GAMG:  Solving for p, Initial residual = 0.00389262, Final residual = 3.87615e-05, No Iterations 7
time step continuity errors : sum local = 4.05948e-07, global = 1.49095e-07, cumulative = 7.81461e-07
GAMG:  Solving for p, Initial residual = 0.0268874, Final residual = 0.000195128, No Iterations 4
GAMG:  Solving for p, Initial residual = 0.00397818, Final residual = 3.83439e-05, No Iterations 14
GAMG:  Solving for p, Initial residual = 0.00177505, Final residual = 1.64559e-05, No Iterations 10
time step continuity errors : sum local = 1.73489e-07, global = -4.71537e-08, cumulative = 7.34308e-07
PIMPLE: iteration 3
DILUPBiCG:  Solving for Ux, Initial residual = 0.00308916, Final residual = 1.1643e-06, No Iterations 2
DILUPBiCG:  Solving for Uy, Initial residual = 0.000520107, Final residual = 7.29882e-06, No Iterations 1
DILUPBiCG:  Solving for Uz, Initial residual = 0.00687757, Final residual = 2.41802e-06, No Iterations 2
GAMG:  Solving for p, Initial residual = 0.0394157, Final residual = 0.000330477, No Iterations 5
GAMG:  Solving for p, Initial residual = 0.00898337, Final residual = 8.07646e-05, No Iterations 15
GAMG:  Solving for p, Initial residual = 0.00431017, Final residual = 3.72109e-05, No Iterations 10
time step continuity errors : sum local = 4.36905e-07, global = -1.14089e-07, cumulative = 6.20219e-07
GAMG:  Solving for p, Initial residual = 0.00254333, Final residual = 2.40692e-05, No Iterations 20
GAMG:  Solving for p, Initial residual = 0.00144996, Final residual = 1.27853e-05, No Iterations 4
GAMG:  Solving for p, Initial residual = 0.000564124, Final residual = 9.43895e-07, No Iterations 36
time step continuity errors : sum local = 1.10557e-08, global = 3.25573e-09, cumulative = 6.23475e-07
DILUPBiCG:  Solving for omega, Initial residual = 0.00048451, Final residual = 1.2867e-06, No Iterations 1
DILUPBiCG:  Solving for k, Initial residual = 0.0047593, Final residual = 1.53559e-06, No Iterations 2
ExecutionTime = 58.58 s  ClockTime = 59 s

Courant Number mean: 0.232833 max: 0.512763
Time = 0.468

GAMG:  Solving for cellDisplacementx, Initial residual = 0, Final residual = 0, No Iterations 0
GAMG:  Solving for cellDisplacementy, Initial residual = 0, Final residual = 0, No Iterations 0
GAMG:  Solving for cellDisplacementz, Initial residual = 0, Final residual = 0, No Iterations 0
PIMPLE: iteration 1
DILUPBiCG:  Solving for Ux, Initial residual = 0.0422917, Final residual = 0.000176639, No Iterations 1
DILUPBiCG:  Solving for Uy, Initial residual = 0.00681456, Final residual = 1.5771e-05, No Iterations 1
DILUPBiCG:  Solving for Uz, Initial residual = 0.0119065, Final residual = 3.23219e-05, No Iterations 1
GAMG:  Solving for p, Initial residual = 0.124196, Final residual = 0.00111996, No Iterations 6
GAMG:  Solving for p, Initial residual = 0.0137673, Final residual = 0.000134485, No Iterations 20
GAMG:  Solving for p, Initial residual = 0.00600244, Final residual = 5.34086e-05, No Iterations 12
time step continuity errors : sum local = 6.91106e-07, global = 2.08296e-07, cumulative = 8.31771e-07
GAMG:  Solving for p, Initial residual = 0.0517757, Final residual = 0.000366642, No Iterations 6
GAMG:  Solving for p, Initial residual = 0.00697125, Final residual = 6.42304e-05, No Iterations 18
GAMG:  Solving for p, Initial residual = 0.00312636, Final residual = 2.56592e-05, No Iterations 12
time step continuity errors : sum local = 3.31125e-07, global = 9.84549e-08, cumulative = 9.30226e-07
PIMPLE: iteration 2
DILUPBiCG:  Solving for Ux, Initial residual = 0.0126375, Final residual = 7.23667e-05, No Iterations 1
DILUPBiCG:  Solving for Uy, Initial residual = 0.00215025, Final residual = 5.08108e-06, No Iterations 1
DILUPBiCG:  Solving for Uz, Initial residual = 0.00358844, Final residual = 1.26614e-05, No Iterations 1
GAMG:  Solving for p, Initial residual = 0.0521427, Final residual = 0.000467209, No Iterations 4
GAMG:  Solving for p, Initial residual = 0.00815922, Final residual = 7.36247e-05, No Iterations 18
GAMG:  Solving for p, Initial residual = 0.00383738, Final residual = 3.50408e-05, No Iterations 8
time step continuity errors : sum local = 3.8268e-07, global = -1.37189e-07, cumulative = 7.93036e-07
GAMG:  Solving for p, Initial residual = 0.0266635, Final residual = 0.000199145, No Iterations 4
GAMG:  Solving for p, Initial residual = 0.00395938, Final residual = 3.85939e-05, No Iterations 14
GAMG:  Solving for p, Initial residual = 0.00174686, Final residual = 1.65623e-05, No Iterations 10
time step continuity errors : sum local = 1.82073e-07, global = -4.91681e-08, cumulative = 7.43868e-07
PIMPLE: iteration 3
DILUPBiCG:  Solving for Ux, Initial residual = 0.00322468, Final residual = 1.34993e-06, No Iterations 2
DILUPBiCG:  Solving for Uy, Initial residual = 0.000545802, Final residual = 7.2428e-06, No Iterations 1
DILUPBiCG:  Solving for Uz, Initial residual = 0.00702068, Final residual = 2.65108e-06, No Iterations 2
GAMG:  Solving for p, Initial residual = 0.0393709, Final residual = 0.000329334, No Iterations 5
GAMG:  Solving for p, Initial residual = 0.00895922, Final residual = 7.86346e-05, No Iterations 15
GAMG:  Solving for p, Initial residual = 0.00430995, Final residual = 3.58649e-05, No Iterations 10
time step continuity errors : sum local = 4.39299e-07, global = -1.14571e-07, cumulative = 6.29298e-07
GAMG:  Solving for p, Initial residual = 0.00250534, Final residual = 2.40087e-05, No Iterations 20
GAMG:  Solving for p, Initial residual = 0.00142479, Final residual = 1.26661e-05, No Iterations 4
GAMG:  Solving for p, Initial residual = 0.000556206, Final residual = 9.25318e-07, No Iterations 36
time step continuity errors : sum local = 1.13033e-08, global = 3.32723e-09, cumulative = 6.32625e-07
DILUPBiCG:  Solving for omega, Initial residual = 0.00048121, Final residual = 9.3683e-07, No Iterations 1
DILUPBiCG:  Solving for k, Initial residual = 0.00470731, Final residual = 1.55639e-06, No Iterations 2
ExecutionTime = 66.56 s  ClockTime = 67 s

Courant Number mean: 0.227766 max: 0.501564
Time = 0.469

GAMG:  Solving for cellDisplacementx, Initial residual = 0, Final residual = 0, No Iterations 0
GAMG:  Solving for cellDisplacementy, Initial residual = 0, Final residual = 0, No Iterations 0
GAMG:  Solving for cellDisplacementz, Initial residual = 0, Final residual = 0, No Iterations 0
PIMPLE: iteration 1
DILUPBiCG:  Solving for Ux, Initial residual = 0.0446474, Final residual = 0.00018635, No Iterations 1
DILUPBiCG:  Solving for Uy, Initial residual = 0.00722409, Final residual = 1.66586e-05, No Iterations 1
DILUPBiCG:  Solving for Uz, Initial residual = 0.0115081, Final residual = 3.11599e-05, No Iterations 1
GAMG:  Solving for p, Initial residual = 0.122911, Final residual = 0.00108975, No Iterations 6
GAMG:  Solving for p, Initial residual = 0.013558, Final residual = 0.000132041, No Iterations 20
GAMG:  Solving for p, Initial residual = 0.00594394, Final residual = 5.26052e-05, No Iterations 12
time step continuity errors : sum local = 7.05405e-07, global = 2.12508e-07, cumulative = 8.45133e-07
GAMG:  Solving for p, Initial residual = 0.0514387, Final residual = 0.000358752, No Iterations 6
GAMG:  Solving for p, Initial residual = 0.00687504, Final residual = 6.3107e-05, No Iterations 18
GAMG:  Solving for p, Initial residual = 0.00309528, Final residual = 2.53642e-05, No Iterations 12
time step continuity errors : sum local = 3.39324e-07, global = 1.00942e-07, cumulative = 9.46075e-07
PIMPLE: iteration 2
DILUPBiCG:  Solving for Ux, Initial residual = 0.0132501, Final residual = 7.67948e-05, No Iterations 1
DILUPBiCG:  Solving for Uy, Initial residual = 0.0022644, Final residual = 5.28484e-06, No Iterations 1
DILUPBiCG:  Solving for Uz, Initial residual = 0.00353102, Final residual = 1.27017e-05, No Iterations 1
GAMG:  Solving for p, Initial residual = 0.0516989, Final residual = 0.000470109, No Iterations 4
GAMG:  Solving for p, Initial residual = 0.00808064, Final residual = 7.36496e-05, No Iterations 18
GAMG:  Solving for p, Initial residual = 0.00378961, Final residual = 3.4774e-05, No Iterations 8
time step continuity errors : sum local = 3.94144e-07, global = -1.3887e-07, cumulative = 8.07206e-07
GAMG:  Solving for p, Initial residual = 0.0264743, Final residual = 0.000201305, No Iterations 4
GAMG:  Solving for p, Initial residual = 0.00393445, Final residual = 3.87275e-05, No Iterations 14
GAMG:  Solving for p, Initial residual = 0.00172537, Final residual = 1.66669e-05, No Iterations 10
time step continuity errors : sum local = 1.90148e-07, global = -5.09875e-08, cumulative = 7.56218e-07
PIMPLE: iteration 3
DILUPBiCG:  Solving for Ux, Initial residual = 0.00335183, Final residual = 1.54585e-06, No Iterations 2
DILUPBiCG:  Solving for Uy, Initial residual = 0.000570333, Final residual = 7.17237e-06, No Iterations 1
DILUPBiCG:  Solving for Uz, Initial residual = 0.00708748, Final residual = 2.92021e-06, No Iterations 2
GAMG:  Solving for p, Initial residual = 0.0393515, Final residual = 0.000332011, No Iterations 5
GAMG:  Solving for p, Initial residual = 0.00894848, Final residual = 8.89303e-05, No Iterations 13
GAMG:  Solving for p, Initial residual = 0.00429013, Final residual = 3.64283e-05, No Iterations 12
time step continuity errors : sum local = 4.63629e-07, global = -1.35402e-07, cumulative = 6.20817e-07
GAMG:  Solving for p, Initial residual = 0.00248029, Final residual = 2.23623e-05, No Iterations 20
GAMG:  Solving for p, Initial residual = 0.0014001, Final residual = 1.18261e-05, No Iterations 4
GAMG:  Solving for p, Initial residual = 0.000550333, Final residual = 9.4205e-07, No Iterations 34
time step continuity errors : sum local = 1.19447e-08, global = 3.50914e-09, cumulative = 6.24326e-07
DILUPBiCG:  Solving for omega, Initial residual = 0.000486419, Final residual = 7.66352e-07, No Iterations 1
DILUPBiCG:  Solving for k, Initial residual = 0.00465169, Final residual = 1.57103e-06, No Iterations 2
ExecutionTime = 74.47 s  ClockTime = 75 s

Courant Number mean: 0.222546 max: 0.490026
Time = 0.47

GAMG:  Solving for cellDisplacementx, Initial residual = 0, Final residual = 0, No Iterations 0
GAMG:  Solving for cellDisplacementy, Initial residual = 0, Final residual = 0, No Iterations 0
GAMG:  Solving for cellDisplacementz, Initial residual = 0, Final residual = 0, No Iterations 0
PIMPLE: iteration 1
DILUPBiCG:  Solving for Ux, Initial residual = 0.0469318, Final residual = 0.000195596, No Iterations 1
DILUPBiCG:  Solving for Uy, Initial residual = 0.00762976, Final residual = 1.75189e-05, No Iterations 1
DILUPBiCG:  Solving for Uz, Initial residual = 0.0113156, Final residual = 3.0115e-05, No Iterations 1
GAMG:  Solving for p, Initial residual = 0.121683, Final residual = 0.0010606, No Iterations 6
GAMG:  Solving for p, Initial residual = 0.0133673, Final residual = 0.000129775, No Iterations 20
GAMG:  Solving for p, Initial residual = 0.0058947, Final residual = 5.17569e-05, No Iterations 12
time step continuity errors : sum local = 7.16038e-07, global = 2.15876e-07, cumulative = 8.40202e-07
GAMG:  Solving for p, Initial residual = 0.0511034, Final residual = 0.000351316, No Iterations 6
GAMG:  Solving for p, Initial residual = 0.00678243, Final residual = 6.21397e-05, No Iterations 18
GAMG:  Solving for p, Initial residual = 0.003069, Final residual = 3.06371e-05, No Iterations 10
time step continuity errors : sum local = 4.23052e-07, global = 1.11798e-07, cumulative = 9.52e-07
PIMPLE: iteration 2
DILUPBiCG:  Solving for Ux, Initial residual = 0.0138334, Final residual = 8.10102e-05, No Iterations 1
DILUPBiCG:  Solving for Uy, Initial residual = 0.00237478, Final residual = 5.48203e-06, No Iterations 1
DILUPBiCG:  Solving for Uz, Initial residual = 0.00345503, Final residual = 1.26928e-05, No Iterations 1
GAMG:  Solving for p, Initial residual = 0.0512638, Final residual = 0.000471703, No Iterations 4
GAMG:  Solving for p, Initial residual = 0.00800375, Final residual = 7.38003e-05, No Iterations 18
GAMG:  Solving for p, Initial residual = 0.00374456, Final residual = 3.46244e-05, No Iterations 8
time step continuity errors : sum local = 4.05605e-07, global = -1.41367e-07, cumulative = 8.10633e-07
GAMG:  Solving for p, Initial residual = 0.0262795, Final residual = 0.000202806, No Iterations 4
GAMG:  Solving for p, Initial residual = 0.00390756, Final residual = 3.89789e-05, No Iterations 14
GAMG:  Solving for p, Initial residual = 0.00170874, Final residual = 1.68268e-05, No Iterations 10
time step continuity errors : sum local = 1.98397e-07, global = -5.2912e-08, cumulative = 7.57721e-07
PIMPLE: iteration 3
DILUPBiCG:  Solving for Ux, Initial residual = 0.00347339, Final residual = 1.74786e-06, No Iterations 2
DILUPBiCG:  Solving for Uy, Initial residual = 0.000594568, Final residual = 7.07306e-06, No Iterations 1
DILUPBiCG:  Solving for Uz, Initial residual = 0.00717367, Final residual = 3.18061e-06, No Iterations 2
GAMG:  Solving for p, Initial residual = 0.0393676, Final residual = 0.000334186, No Iterations 5
GAMG:  Solving for p, Initial residual = 0.00894328, Final residual = 8.61954e-05, No Iterations 13
GAMG:  Solving for p, Initial residual = 0.00429838, Final residual = 4.27724e-05, No Iterations 10
time step continuity errors : sum local = 5.62757e-07, global = -1.46851e-07, cumulative = 6.10869e-07
GAMG:  Solving for p, Initial residual = 0.00245171, Final residual = 2.25098e-05, No Iterations 18
GAMG:  Solving for p, Initial residual = 0.0013726, Final residual = 1.17187e-05, No Iterations 4
GAMG:  Solving for p, Initial residual = 0.000545728, Final residual = 9.25302e-07, No Iterations 34
time step continuity errors : sum local = 1.21246e-08, global = 3.56046e-09, cumulative = 6.1443e-07
DILUPBiCG:  Solving for omega, Initial residual = 0.000498568, Final residual = 6.92659e-07, No Iterations 1
DILUPBiCG:  Solving for k, Initial residual = 0.0045938, Final residual = 1.57574e-06, No Iterations 2
ExecutionTime = 80.47 s  ClockTime = 81 s

End

