/*---------------------------------------------------------------------------*\
| =========                 |                                                 |
| \\      /  F ield         | OpenFOAM: The Open Source CFD Toolbox           |
|  \\    /   O peration     | Version:  2.3.1                                 |
|   \\  /    A nd           | Web:      www.OpenFOAM.org                      |
|    \\/     M anipulation  |                                                 |
\*---------------------------------------------------------------------------*/
Build  : 2.3.1-262087cdf8db
Exec   : pimpleDyMFoam
Date   : Jun 04 2023
Time   : 16:53:35
Host   : "jcosson-VirtualBox"
PID    : 3955
Case   : /home/jcosson/workspace/henersj_shootingdata/calcs/moderate_deformed/primal/10_intervals_04-06-23/sweep3/interval4
nProcs : 1
sigFpe : Enabling floating point exception trapping (FOAM_SIGFPE).
fileModificationChecking : Monitoring run-time modified files using timeStampMaster
allowSystemOperations : Allowing user-supplied system call operations

// * * * * * * * * * * * * * * * * * * * * * * * * * * * * * * * * * * * * * //
Create time

Create mesh for time = 0.43

Selecting dynamicFvMesh dynamicMotionSolverFvMesh
Selecting motion solver: displacementLaplacian
Selecting motion diffusion: quadratic
Selecting motion diffusion: quadratic
Selecting motion diffusion: inverseDistance

PIMPLE: no residual control data found. Calculations will employ 3 corrector loops

Reading field p

Reading field U

Reading/calculating face flux field phi

Selecting incompressible transport model Newtonian
Selecting turbulence model type RASModel
Selecting RAS turbulence model kOmegaSST
kOmegaSSTCoeffs
{
    alphaK1         0.85034;
    alphaK2         1;
    alphaOmega1     0.5;
    alphaOmega2     0.85616;
    gamma1          0.5532;
    gamma2          0.4403;
    beta1           0.075;
    beta2           0.0828;
    betaStar        0.09;
    a1              0.31;
    c1              10;
    Cmu             0.09;
    b1              1;
    F3              false;
}

Reading/calculating face velocity Uf

No finite volume options present

Courant Number mean: 0.21625 max: 0.468914

Starting time loop

Courant Number mean: 0.21625 max: 0.468914
Time = 0.431

GAMG:  Solving for cellDisplacementx, Initial residual = 0, Final residual = 0, No Iterations 0
GAMG:  Solving for cellDisplacementy, Initial residual = 0, Final residual = 0, No Iterations 0
GAMG:  Solving for cellDisplacementz, Initial residual = 0, Final residual = 0, No Iterations 0
PIMPLE: iteration 1
DILUPBiCG:  Solving for Ux, Initial residual = 0.0506211, Final residual = 0.000165066, No Iterations 1
DILUPBiCG:  Solving for Uy, Initial residual = 0.00820552, Final residual = 1.81764e-05, No Iterations 1
DILUPBiCG:  Solving for Uz, Initial residual = 0.0170726, Final residual = 2.4462e-05, No Iterations 1
GAMG:  Solving for p, Initial residual = 0.121982, Final residual = 0.000779066, No Iterations 6
GAMG:  Solving for p, Initial residual = 0.0155247, Final residual = 0.000149272, No Iterations 16
GAMG:  Solving for p, Initial residual = 0.00680193, Final residual = 5.7849e-05, No Iterations 12
time step continuity errors : sum local = 8.49947e-07, global = -2.49924e-07, cumulative = -2.49924e-07
GAMG:  Solving for p, Initial residual = 0.0527887, Final residual = 0.000468253, No Iterations 4
GAMG:  Solving for p, Initial residual = 0.00770568, Final residual = 7.68799e-05, No Iterations 16
GAMG:  Solving for p, Initial residual = 0.00353743, Final residual = 3.08641e-05, No Iterations 12
time step continuity errors : sum local = 4.54136e-07, global = -1.33877e-07, cumulative = -3.83801e-07
PIMPLE: iteration 2
DILUPBiCG:  Solving for Ux, Initial residual = 0.0142983, Final residual = 5.9908e-05, No Iterations 1
DILUPBiCG:  Solving for Uy, Initial residual = 0.00232694, Final residual = 6.99969e-06, No Iterations 1
DILUPBiCG:  Solving for Uz, Initial residual = 0.0031136, Final residual = 9.33488e-06, No Iterations 1
GAMG:  Solving for p, Initial residual = 0.0531212, Final residual = 0.000520332, No Iterations 4
GAMG:  Solving for p, Initial residual = 0.009929, Final residual = 8.4326e-05, No Iterations 16
GAMG:  Solving for p, Initial residual = 0.00435374, Final residual = 3.97231e-05, No Iterations 8
time step continuity errors : sum local = 4.96744e-07, global = 1.36484e-07, cumulative = -2.47317e-07
GAMG:  Solving for p, Initial residual = 0.0275208, Final residual = 0.000225079, No Iterations 4
GAMG:  Solving for p, Initial residual = 0.00489284, Final residual = 4.84664e-05, No Iterations 12
GAMG:  Solving for p, Initial residual = 0.00201248, Final residual = 2.00782e-05, No Iterations 10
time step continuity errors : sum local = 2.52736e-07, global = 6.38848e-08, cumulative = -1.83432e-07
PIMPLE: iteration 3
DILUPBiCG:  Solving for Ux, Initial residual = 0.00339904, Final residual = 1.29853e-06, No Iterations 2
DILUPBiCG:  Solving for Uy, Initial residual = 0.000557718, Final residual = 8.774e-06, No Iterations 1
DILUPBiCG:  Solving for Uz, Initial residual = 0.0082516, Final residual = 2.68099e-06, No Iterations 2
GAMG:  Solving for p, Initial residual = 0.0415153, Final residual = 0.000333943, No Iterations 5
GAMG:  Solving for p, Initial residual = 0.01031, Final residual = 8.49211e-05, No Iterations 5
GAMG:  Solving for p, Initial residual = 0.0044784, Final residual = 3.90761e-05, No Iterations 9
time step continuity errors : sum local = 5.47275e-07, global = 1.35481e-07, cumulative = -4.79509e-08
GAMG:  Solving for p, Initial residual = 0.0025504, Final residual = 2.42685e-05, No Iterations 18
GAMG:  Solving for p, Initial residual = 0.00150849, Final residual = 1.22717e-05, No Iterations 4
GAMG:  Solving for p, Initial residual = 0.000554936, Final residual = 9.11782e-07, No Iterations 36
time step continuity errors : sum local = 1.27557e-08, global = -3.74268e-09, cumulative = -5.16936e-08
DILUPBiCG:  Solving for omega, Initial residual = 0.000780381, Final residual = 8.6129e-07, No Iterations 1
DILUPBiCG:  Solving for k, Initial residual = 0.00535791, Final residual = 1.16971e-06, No Iterations 2
ExecutionTime = 9.85 s  ClockTime = 10 s

Courant Number mean: 0.221706 max: 0.481483
Time = 0.432

GAMG:  Solving for cellDisplacementx, Initial residual = 0, Final residual = 0, No Iterations 0
GAMG:  Solving for cellDisplacementy, Initial residual = 0, Final residual = 0, No Iterations 0
GAMG:  Solving for cellDisplacementz, Initial residual = 0, Final residual = 0, No Iterations 0
PIMPLE: iteration 1
DILUPBiCG:  Solving for Ux, Initial residual = 0.0487101, Final residual = 0.000158071, No Iterations 1
DILUPBiCG:  Solving for Uy, Initial residual = 0.00779119, Final residual = 1.74401e-05, No Iterations 1
DILUPBiCG:  Solving for Uz, Initial residual = 0.0146192, Final residual = 1.90163e-05, No Iterations 1
GAMG:  Solving for p, Initial residual = 0.111895, Final residual = 0.000732986, No Iterations 6
GAMG:  Solving for p, Initial residual = 0.0136313, Final residual = 0.000131162, No Iterations 16
GAMG:  Solving for p, Initial residual = 0.00596365, Final residual = 5.52081e-05, No Iterations 10
time step continuity errors : sum local = 7.9516e-07, global = -2.07115e-07, cumulative = -2.58808e-07
GAMG:  Solving for p, Initial residual = 0.0486555, Final residual = 0.000439132, No Iterations 4
GAMG:  Solving for p, Initial residual = 0.00673087, Final residual = 6.66942e-05, No Iterations 16
GAMG:  Solving for p, Initial residual = 0.00309708, Final residual = 3.0434e-05, No Iterations 10
time step continuity errors : sum local = 4.38291e-07, global = -1.15499e-07, cumulative = -3.74308e-07
PIMPLE: iteration 2
DILUPBiCG:  Solving for Ux, Initial residual = 0.013722, Final residual = 5.64554e-05, No Iterations 1
DILUPBiCG:  Solving for Uy, Initial residual = 0.00223029, Final residual = 6.9543e-06, No Iterations 1
DILUPBiCG:  Solving for Uz, Initial residual = 0.00290602, Final residual = 9.45253e-06, No Iterations 1
GAMG:  Solving for p, Initial residual = 0.04861, Final residual = 0.000306538, No Iterations 6
GAMG:  Solving for p, Initial residual = 0.00887876, Final residual = 7.72316e-05, No Iterations 16
GAMG:  Solving for p, Initial residual = 0.00361414, Final residual = 3.18324e-05, No Iterations 10
time step continuity errors : sum local = 3.89032e-07, global = 1.00812e-07, cumulative = -2.73496e-07
GAMG:  Solving for p, Initial residual = 0.0251606, Final residual = 0.000228329, No Iterations 4
GAMG:  Solving for p, Initial residual = 0.0043275, Final residual = 4.1961e-05, No Iterations 14
GAMG:  Solving for p, Initial residual = 0.00174267, Final residual = 1.51879e-05, No Iterations 12
time step continuity errors : sum local = 1.86867e-07, global = 5.38754e-08, cumulative = -2.19621e-07
PIMPLE: iteration 3
DILUPBiCG:  Solving for Ux, Initial residual = 0.00322025, Final residual = 1.28116e-06, No Iterations 2
DILUPBiCG:  Solving for Uy, Initial residual = 0.000532271, Final residual = 9.44134e-06, No Iterations 1
DILUPBiCG:  Solving for Uz, Initial residual = 0.00690178, Final residual = 4.51756e-06, No Iterations 2
GAMG:  Solving for p, Initial residual = 0.0414079, Final residual = 0.000363649, No Iterations 5
GAMG:  Solving for p, Initial residual = 0.0104469, Final residual = 0.000100462, No Iterations 8
GAMG:  Solving for p, Initial residual = 0.00460699, Final residual = 3.78261e-05, No Iterations 12
time step continuity errors : sum local = 5.18686e-07, global = 1.49773e-07, cumulative = -6.98478e-08
GAMG:  Solving for p, Initial residual = 0.0026207, Final residual = 2.44461e-05, No Iterations 18
GAMG:  Solving for p, Initial residual = 0.00153855, Final residual = 1.29575e-05, No Iterations 4
GAMG:  Solving for p, Initial residual = 0.00056899, Final residual = 9.92984e-07, No Iterations 36
time step continuity errors : sum local = 1.35619e-08, global = -3.97974e-09, cumulative = -7.38275e-08
DILUPBiCG:  Solving for omega, Initial residual = 0.000809459, Final residual = 8.94224e-07, No Iterations 1
DILUPBiCG:  Solving for k, Initial residual = 0.00550137, Final residual = 1.18338e-06, No Iterations 2
ExecutionTime = 17.94 s  ClockTime = 18 s

Courant Number mean: 0.227015 max: 0.493779
Time = 0.433

GAMG:  Solving for cellDisplacementx, Initial residual = 0, Final residual = 0, No Iterations 0
GAMG:  Solving for cellDisplacementy, Initial residual = 0, Final residual = 0, No Iterations 0
GAMG:  Solving for cellDisplacementz, Initial residual = 0, Final residual = 0, No Iterations 0
PIMPLE: iteration 1
DILUPBiCG:  Solving for Ux, Initial residual = 0.0464465, Final residual = 0.000150505, No Iterations 1
DILUPBiCG:  Solving for Uy, Initial residual = 0.0074351, Final residual = 1.70105e-05, No Iterations 1
DILUPBiCG:  Solving for Uz, Initial residual = 0.0139353, Final residual = 2.05932e-05, No Iterations 1
GAMG:  Solving for p, Initial residual = 0.111638, Final residual = 0.000740871, No Iterations 6
GAMG:  Solving for p, Initial residual = 0.0138096, Final residual = 0.000121979, No Iterations 18
GAMG:  Solving for p, Initial residual = 0.0061263, Final residual = 5.45785e-05, No Iterations 10
time step continuity errors : sum local = 7.69666e-07, global = -1.98803e-07, cumulative = -2.7263e-07
GAMG:  Solving for p, Initial residual = 0.0485254, Final residual = 0.000446926, No Iterations 4
GAMG:  Solving for p, Initial residual = 0.00684018, Final residual = 6.28501e-05, No Iterations 18
GAMG:  Solving for p, Initial residual = 0.00319794, Final residual = 2.96927e-05, No Iterations 10
time step continuity errors : sum local = 4.1888e-07, global = -1.09065e-07, cumulative = -3.81695e-07
PIMPLE: iteration 2
DILUPBiCG:  Solving for Ux, Initial residual = 0.0131343, Final residual = 5.32117e-05, No Iterations 1
DILUPBiCG:  Solving for Uy, Initial residual = 0.00212463, Final residual = 6.84589e-06, No Iterations 1
DILUPBiCG:  Solving for Uz, Initial residual = 0.00289971, Final residual = 8.47813e-06, No Iterations 1
GAMG:  Solving for p, Initial residual = 0.0483672, Final residual = 0.00030713, No Iterations 6
GAMG:  Solving for p, Initial residual = 0.00928868, Final residual = 9.0141e-05, No Iterations 14
GAMG:  Solving for p, Initial residual = 0.00372801, Final residual = 3.19612e-05, No Iterations 12
time step continuity errors : sum local = 3.82513e-07, global = 1.08606e-07, cumulative = -2.73089e-07
GAMG:  Solving for p, Initial residual = 0.0250794, Final residual = 0.000228764, No Iterations 4
GAMG:  Solving for p, Initial residual = 0.0044761, Final residual = 4.083e-05, No Iterations 14
GAMG:  Solving for p, Initial residual = 0.00181194, Final residual = 1.76398e-05, No Iterations 10
time step continuity errors : sum local = 2.12512e-07, global = 5.43837e-08, cumulative = -2.18705e-07
PIMPLE: iteration 3
DILUPBiCG:  Solving for Ux, Initial residual = 0.00309226, Final residual = 1.24852e-06, No Iterations 2
DILUPBiCG:  Solving for Uy, Initial residual = 0.000504616, Final residual = 8.93344e-06, No Iterations 1
DILUPBiCG:  Solving for Uz, Initial residual = 0.0077067, Final residual = 2.81231e-06, No Iterations 2
GAMG:  Solving for p, Initial residual = 0.0415512, Final residual = 0.000352291, No Iterations 5
GAMG:  Solving for p, Initial residual = 0.0105479, Final residual = 8.53551e-05, No Iterations 8
GAMG:  Solving for p, Initial residual = 0.00454962, Final residual = 4.49477e-05, No Iterations 8
time step continuity errors : sum local = 6.02826e-07, global = 1.32128e-07, cumulative = -8.6577e-08
GAMG:  Solving for p, Initial residual = 0.00261865, Final residual = 2.50186e-05, No Iterations 18
GAMG:  Solving for p, Initial residual = 0.00156498, Final residual = 1.28203e-05, No Iterations 4
GAMG:  Solving for p, Initial residual = 0.000565519, Final residual = 9.83008e-07, No Iterations 36
time step continuity errors : sum local = 1.31522e-08, global = -3.86162e-09, cumulative = -9.04387e-08
DILUPBiCG:  Solving for omega, Initial residual = 0.000841408, Final residual = 9.33332e-07, No Iterations 1
DILUPBiCG:  Solving for k, Initial residual = 0.00565092, Final residual = 1.2073e-06, No Iterations 2
ExecutionTime = 25.86 s  ClockTime = 26 s

Courant Number mean: 0.232181 max: 0.505758
Time = 0.434

GAMG:  Solving for cellDisplacementx, Initial residual = 0, Final residual = 0, No Iterations 0
GAMG:  Solving for cellDisplacementy, Initial residual = 0, Final residual = 0, No Iterations 0
GAMG:  Solving for cellDisplacementz, Initial residual = 0, Final residual = 0, No Iterations 0
PIMPLE: iteration 1
DILUPBiCG:  Solving for Ux, Initial residual = 0.044346, Final residual = 0.000143439, No Iterations 1
DILUPBiCG:  Solving for Uy, Initial residual = 0.00702351, Final residual = 1.63071e-05, No Iterations 1
DILUPBiCG:  Solving for Uz, Initial residual = 0.0131213, Final residual = 1.79381e-05, No Iterations 1
GAMG:  Solving for p, Initial residual = 0.109803, Final residual = 0.000697218, No Iterations 6
GAMG:  Solving for p, Initial residual = 0.0136198, Final residual = 0.000127118, No Iterations 16
GAMG:  Solving for p, Initial residual = 0.00593829, Final residual = 5.42798e-05, No Iterations 10
time step continuity errors : sum local = 7.43109e-07, global = -1.93757e-07, cumulative = -2.84196e-07
GAMG:  Solving for p, Initial residual = 0.0480016, Final residual = 0.000418959, No Iterations 4
GAMG:  Solving for p, Initial residual = 0.0067159, Final residual = 6.46726e-05, No Iterations 16
GAMG:  Solving for p, Initial residual = 0.00308344, Final residual = 2.98298e-05, No Iterations 10
time step continuity errors : sum local = 4.08304e-07, global = -1.07847e-07, cumulative = -3.92043e-07
PIMPLE: iteration 2
DILUPBiCG:  Solving for Ux, Initial residual = 0.0125073, Final residual = 4.99277e-05, No Iterations 1
DILUPBiCG:  Solving for Uy, Initial residual = 0.00202229, Final residual = 6.78911e-06, No Iterations 1
DILUPBiCG:  Solving for Uz, Initial residual = 0.0027425, Final residual = 8.59634e-06, No Iterations 1
GAMG:  Solving for p, Initial residual = 0.0477527, Final residual = 0.000311471, No Iterations 6
GAMG:  Solving for p, Initial residual = 0.00915556, Final residual = 7.85473e-05, No Iterations 16
GAMG:  Solving for p, Initial residual = 0.00363712, Final residual = 3.29585e-05, No Iterations 10
time step continuity errors : sum local = 3.82555e-07, global = 9.82133e-08, cumulative = -2.9383e-07
GAMG:  Solving for p, Initial residual = 0.0247885, Final residual = 0.000234406, No Iterations 4
GAMG:  Solving for p, Initial residual = 0.00442246, Final residual = 4.26193e-05, No Iterations 14
GAMG:  Solving for p, Initial residual = 0.00174541, Final residual = 1.59336e-05, No Iterations 12
time step continuity errors : sum local = 1.8626e-07, global = 5.35363e-08, cumulative = -2.40293e-07
PIMPLE: iteration 3
DILUPBiCG:  Solving for Ux, Initial residual = 0.00290726, Final residual = 1.21372e-06, No Iterations 2
DILUPBiCG:  Solving for Uy, Initial residual = 0.000477862, Final residual = 9.65506e-06, No Iterations 1
DILUPBiCG:  Solving for Uz, Initial residual = 0.00650089, Final residual = 7.73798e-06, No Iterations 2
GAMG:  Solving for p, Initial residual = 0.0421211, Final residual = 0.000368459, No Iterations 5
GAMG:  Solving for p, Initial residual = 0.0108225, Final residual = 9.21632e-05, No Iterations 10
GAMG:  Solving for p, Initial residual = 0.00475781, Final residual = 4.30942e-05, No Iterations 10
time step continuity errors : sum local = 5.60459e-07, global = 1.44685e-07, cumulative = -9.56078e-08
GAMG:  Solving for p, Initial residual = 0.00271815, Final residual = 2.51739e-05, No Iterations 18
GAMG:  Solving for p, Initial residual = 0.00161787, Final residual = 1.33454e-05, No Iterations 4
GAMG:  Solving for p, Initial residual = 0.000588804, Final residual = 8.8801e-07, No Iterations 38
time step continuity errors : sum local = 1.15109e-08, global = -3.39289e-09, cumulative = -9.90007e-08
DILUPBiCG:  Solving for omega, Initial residual = 0.000876188, Final residual = 9.77281e-07, No Iterations 1
DILUPBiCG:  Solving for k, Initial residual = 0.00580295, Final residual = 1.2327e-06, No Iterations 2
ExecutionTime = 33.82 s  ClockTime = 34 s

Courant Number mean: 0.237161 max: 0.517367
Time = 0.435

GAMG:  Solving for cellDisplacementx, Initial residual = 0, Final residual = 0, No Iterations 0
GAMG:  Solving for cellDisplacementy, Initial residual = 0, Final residual = 0, No Iterations 0
GAMG:  Solving for cellDisplacementz, Initial residual = 0, Final residual = 0, No Iterations 0
PIMPLE: iteration 1
DILUPBiCG:  Solving for Ux, Initial residual = 0.0419722, Final residual = 0.000135893, No Iterations 1
DILUPBiCG:  Solving for Uy, Initial residual = 0.00665449, Final residual = 1.5804e-05, No Iterations 1
DILUPBiCG:  Solving for Uz, Initial residual = 0.012331, Final residual = 1.9037e-05, No Iterations 1
GAMG:  Solving for p, Initial residual = 0.109492, Final residual = 0.000696413, No Iterations 6
GAMG:  Solving for p, Initial residual = 0.013795, Final residual = 0.00013586, No Iterations 16
GAMG:  Solving for p, Initial residual = 0.00608195, Final residual = 5.38397e-05, No Iterations 12
time step continuity errors : sum local = 7.14602e-07, global = -2.11702e-07, cumulative = -3.10703e-07
GAMG:  Solving for p, Initial residual = 0.0478673, Final residual = 0.000425031, No Iterations 4
GAMG:  Solving for p, Initial residual = 0.00681582, Final residual = 5.98082e-05, No Iterations 18
GAMG:  Solving for p, Initial residual = 0.00317652, Final residual = 2.85351e-05, No Iterations 10
time step continuity errors : sum local = 3.79242e-07, global = -9.94465e-08, cumulative = -4.10149e-07
PIMPLE: iteration 2
DILUPBiCG:  Solving for Ux, Initial residual = 0.0118723, Final residual = 4.68384e-05, No Iterations 1
DILUPBiCG:  Solving for Uy, Initial residual = 0.00191223, Final residual = 6.67621e-06, No Iterations 1
DILUPBiCG:  Solving for Uz, Initial residual = 0.00279408, Final residual = 8.10518e-06, No Iterations 1
GAMG:  Solving for p, Initial residual = 0.0474886, Final residual = 0.000313102, No Iterations 6
GAMG:  Solving for p, Initial residual = 0.00960172, Final residual = 9.14276e-05, No Iterations 14
GAMG:  Solving for p, Initial residual = 0.00373844, Final residual = 3.30883e-05, No Iterations 12
time step continuity errors : sum local = 3.72822e-07, global = 1.05965e-07, cumulative = -3.04184e-07
GAMG:  Solving for p, Initial residual = 0.0247059, Final residual = 0.000234449, No Iterations 4
GAMG:  Solving for p, Initial residual = 0.00459892, Final residual = 4.14808e-05, No Iterations 14
GAMG:  Solving for p, Initial residual = 0.00181025, Final residual = 1.5398e-05, No Iterations 12
time step continuity errors : sum local = 1.74691e-07, global = 5.05767e-08, cumulative = -2.53607e-07
PIMPLE: iteration 3
DILUPBiCG:  Solving for Ux, Initial residual = 0.00275989, Final residual = 1.16137e-06, No Iterations 2
DILUPBiCG:  Solving for Uy, Initial residual = 0.00044845, Final residual = 9.04093e-06, No Iterations 1
DILUPBiCG:  Solving for Uz, Initial residual = 0.00712703, Final residual = 3.23671e-06, No Iterations 2
GAMG:  Solving for p, Initial residual = 0.0423412, Final residual = 0.000362156, No Iterations 5
GAMG:  Solving for p, Initial residual = 0.0109841, Final residual = 0.000103689, No Iterations 8
GAMG:  Solving for p, Initial residual = 0.0046905, Final residual = 3.89272e-05, No Iterations 12
time step continuity errors : sum local = 4.91314e-07, global = 1.42708e-07, cumulative = -1.10899e-07
GAMG:  Solving for p, Initial residual = 0.00275836, Final residual = 2.56772e-05, No Iterations 18
GAMG:  Solving for p, Initial residual = 0.00165888, Final residual = 1.26718e-05, No Iterations 4
GAMG:  Solving for p, Initial residual = 0.000586502, Final residual = 9.52365e-07, No Iterations 36
time step continuity errors : sum local = 1.19849e-08, global = -3.51781e-09, cumulative = -1.14417e-07
DILUPBiCG:  Solving for omega, Initial residual = 0.000913328, Final residual = 1.02651e-06, No Iterations 1
DILUPBiCG:  Solving for k, Initial residual = 0.00594149, Final residual = 1.26689e-06, No Iterations 2
ExecutionTime = 41.8 s  ClockTime = 42 s

Courant Number mean: 0.241955 max: 0.528558
Time = 0.436

GAMG:  Solving for cellDisplacementx, Initial residual = 0, Final residual = 0, No Iterations 0
GAMG:  Solving for cellDisplacementy, Initial residual = 0, Final residual = 0, No Iterations 0
GAMG:  Solving for cellDisplacementz, Initial residual = 0, Final residual = 0, No Iterations 0
PIMPLE: iteration 1
DILUPBiCG:  Solving for Ux, Initial residual = 0.0397266, Final residual = 0.000128782, No Iterations 1
DILUPBiCG:  Solving for Uy, Initial residual = 0.00624043, Final residual = 1.50755e-05, No Iterations 1
DILUPBiCG:  Solving for Uz, Initial residual = 0.0118373, Final residual = 1.72887e-05, No Iterations 1
GAMG:  Solving for p, Initial residual = 0.107732, Final residual = 0.00105334, No Iterations 4
GAMG:  Solving for p, Initial residual = 0.0136964, Final residual = 0.000127088, No Iterations 18
GAMG:  Solving for p, Initial residual = 0.00615873, Final residual = 5.26497e-05, No Iterations 10
time step continuity errors : sum local = 6.73252e-07, global = -1.75555e-07, cumulative = -2.89972e-07
GAMG:  Solving for p, Initial residual = 0.0473706, Final residual = 0.000394722, No Iterations 4
GAMG:  Solving for p, Initial residual = 0.00670626, Final residual = 6.2067e-05, No Iterations 16
GAMG:  Solving for p, Initial residual = 0.0030709, Final residual = 2.87853e-05, No Iterations 10
time step continuity errors : sum local = 3.67953e-07, global = -9.73877e-08, cumulative = -3.8736e-07
PIMPLE: iteration 2
DILUPBiCG:  Solving for Ux, Initial residual = 0.0112027, Final residual = 4.37346e-05, No Iterations 1
DILUPBiCG:  Solving for Uy, Initial residual = 0.00180468, Final residual = 6.61311e-06, No Iterations 1
DILUPBiCG:  Solving for Uz, Initial residual = 0.00265233, Final residual = 8.2166e-06, No Iterations 1
GAMG:  Solving for p, Initial residual = 0.0469031, Final residual = 0.000316686, No Iterations 6
GAMG:  Solving for p, Initial residual = 0.00950892, Final residual = 9.42398e-05, No Iterations 14
GAMG:  Solving for p, Initial residual = 0.00363009, Final residual = 3.39621e-05, No Iterations 12
time step continuity errors : sum local = 3.68303e-07, global = 1.05752e-07, cumulative = -2.81608e-07
GAMG:  Solving for p, Initial residual = 0.0244018, Final residual = 0.000240743, No Iterations 4
GAMG:  Solving for p, Initial residual = 0.0045566, Final residual = 4.33487e-05, No Iterations 14
GAMG:  Solving for p, Initial residual = 0.00175919, Final residual = 1.67078e-05, No Iterations 12
time step continuity errors : sum local = 1.8239e-07, global = 5.23892e-08, cumulative = -2.29219e-07
PIMPLE: iteration 3
DILUPBiCG:  Solving for Ux, Initial residual = 0.00257194, Final residual = 1.10555e-06, No Iterations 2
DILUPBiCG:  Solving for Uy, Initial residual = 0.000421347, Final residual = 9.74858e-06, No Iterations 1
DILUPBiCG:  Solving for Uz, Initial residual = 0.00603586, Final residual = 7.37949e-08, No Iterations 3
GAMG:  Solving for p, Initial residual = 0.0429899, Final residual = 0.000371599, No Iterations 5
GAMG:  Solving for p, Initial residual = 0.0112348, Final residual = 0.00010362, No Iterations 10
GAMG:  Solving for p, Initial residual = 0.0049183, Final residual = 4.13699e-05, No Iterations 12
time step continuity errors : sum local = 5.01886e-07, global = 1.46965e-07, cumulative = -8.22546e-08
GAMG:  Solving for p, Initial residual = 0.00285428, Final residual = 2.59526e-05, No Iterations 18
GAMG:  Solving for p, Initial residual = 0.00170857, Final residual = 1.3366e-05, No Iterations 4
GAMG:  Solving for p, Initial residual = 0.000611361, Final residual = 8.75844e-07, No Iterations 38
time step continuity errors : sum local = 1.05885e-08, global = -3.12119e-09, cumulative = -8.53758e-08
DILUPBiCG:  Solving for omega, Initial residual = 0.000952263, Final residual = 1.08063e-06, No Iterations 1
DILUPBiCG:  Solving for k, Initial residual = 0.00606482, Final residual = 1.30079e-06, No Iterations 2
ExecutionTime = 49.84 s  ClockTime = 50 s

Courant Number mean: 0.246528 max: 0.539291
Time = 0.437

GAMG:  Solving for cellDisplacementx, Initial residual = 0, Final residual = 0, No Iterations 0
GAMG:  Solving for cellDisplacementy, Initial residual = 0, Final residual = 0, No Iterations 0
GAMG:  Solving for cellDisplacementz, Initial residual = 0, Final residual = 0, No Iterations 0
PIMPLE: iteration 1
DILUPBiCG:  Solving for Ux, Initial residual = 0.0372701, Final residual = 0.000121266, No Iterations 1
DILUPBiCG:  Solving for Uy, Initial residual = 0.00586193, Final residual = 1.4505e-05, No Iterations 1
DILUPBiCG:  Solving for Uz, Initial residual = 0.0110188, Final residual = 1.80416e-05, No Iterations 1
GAMG:  Solving for p, Initial residual = 0.107297, Final residual = 0.00106385, No Iterations 4
GAMG:  Solving for p, Initial residual = 0.0138636, Final residual = 0.000133079, No Iterations 18
GAMG:  Solving for p, Initial residual = 0.00627128, Final residual = 6.21604e-05, No Iterations 10
time step continuity errors : sum local = 7.63212e-07, global = -2.01014e-07, cumulative = -2.8639e-07
GAMG:  Solving for p, Initial residual = 0.0471858, Final residual = 0.00039879, No Iterations 4
GAMG:  Solving for p, Initial residual = 0.0067999, Final residual = 6.5537e-05, No Iterations 16
GAMG:  Solving for p, Initial residual = 0.00313877, Final residual = 2.66173e-05, No Iterations 12
time step continuity errors : sum local = 3.2691e-07, global = -9.75544e-08, cumulative = -3.83944e-07
PIMPLE: iteration 2
DILUPBiCG:  Solving for Ux, Initial residual = 0.0105293, Final residual = 4.08274e-05, No Iterations 1
DILUPBiCG:  Solving for Uy, Initial residual = 0.0016911, Final residual = 6.50102e-06, No Iterations 1
DILUPBiCG:  Solving for Uz, Initial residual = 0.00274593, Final residual = 8.06054e-06, No Iterations 1
GAMG:  Solving for p, Initial residual = 0.0466004, Final residual = 0.000319589, No Iterations 6
GAMG:  Solving for p, Initial residual = 0.00996849, Final residual = 9.28847e-05, No Iterations 14
GAMG:  Solving for p, Initial residual = 0.00378159, Final residual = 3.4389e-05, No Iterations 12
time step continuity errors : sum local = 3.58195e-07, global = 1.02166e-07, cumulative = -2.81778e-07
GAMG:  Solving for p, Initial residual = 0.02433, Final residual = 0.000239987, No Iterations 4
GAMG:  Solving for p, Initial residual = 0.0047493, Final residual = 4.23e-05, No Iterations 14
GAMG:  Solving for p, Initial residual = 0.00183022, Final residual = 1.61343e-05, No Iterations 12
time step continuity errors : sum local = 1.69253e-07, global = 4.90693e-08, cumulative = -2.32709e-07
PIMPLE: iteration 3
DILUPBiCG:  Solving for Ux, Initial residual = 0.00241148, Final residual = 1.03084e-06, No Iterations 2
DILUPBiCG:  Solving for Uy, Initial residual = 0.000391351, Final residual = 9.08553e-06, No Iterations 1
DILUPBiCG:  Solving for Uz, Initial residual = 0.00647953, Final residual = 5.02524e-06, No Iterations 2
GAMG:  Solving for p, Initial residual = 0.043337, Final residual = 0.000368823, No Iterations 5
GAMG:  Solving for p, Initial residual = 0.0114206, Final residual = 9.88597e-05, No Iterations 10
GAMG:  Solving for p, Initial residual = 0.00489312, Final residual = 4.67438e-05, No Iterations 10
time step continuity errors : sum local = 5.44491e-07, global = 1.41716e-07, cumulative = -9.09925e-08
GAMG:  Solving for p, Initial residual = 0.00288668, Final residual = 2.59695e-05, No Iterations 18
GAMG:  Solving for p, Initial residual = 0.00174779, Final residual = 1.27775e-05, No Iterations 4
GAMG:  Solving for p, Initial residual = 0.000608431, Final residual = 9.40328e-07, No Iterations 36
time step continuity errors : sum local = 1.09248e-08, global = -3.20623e-09, cumulative = -9.41988e-08
DILUPBiCG:  Solving for omega, Initial residual = 0.000991147, Final residual = 1.1386e-06, No Iterations 1
DILUPBiCG:  Solving for k, Initial residual = 0.00617367, Final residual = 1.33339e-06, No Iterations 2
ExecutionTime = 57.94 s  ClockTime = 58 s

Courant Number mean: 0.250876 max: 0.549515
Time = 0.438

GAMG:  Solving for cellDisplacementx, Initial residual = 0, Final residual = 0, No Iterations 0
GAMG:  Solving for cellDisplacementy, Initial residual = 0, Final residual = 0, No Iterations 0
GAMG:  Solving for cellDisplacementz, Initial residual = 0, Final residual = 0, No Iterations 0
PIMPLE: iteration 1
DILUPBiCG:  Solving for Ux, Initial residual = 0.0349086, Final residual = 0.000114085, No Iterations 1
DILUPBiCG:  Solving for Uy, Initial residual = 0.00544664, Final residual = 1.37512e-05, No Iterations 1
DILUPBiCG:  Solving for Uz, Initial residual = 0.0109188, Final residual = 1.7387e-05, No Iterations 1
GAMG:  Solving for p, Initial residual = 0.105497, Final residual = 0.00097603, No Iterations 4
GAMG:  Solving for p, Initial residual = 0.0137021, Final residual = 0.000121526, No Iterations 18
GAMG:  Solving for p, Initial residual = 0.00615739, Final residual = 5.1095e-05, No Iterations 10
time step continuity errors : sum local = 5.97871e-07, global = -1.56646e-07, cumulative = -2.50845e-07
GAMG:  Solving for p, Initial residual = 0.0466922, Final residual = 0.000367248, No Iterations 4
GAMG:  Solving for p, Initial residual = 0.0066916, Final residual = 5.94911e-05, No Iterations 16
GAMG:  Solving for p, Initial residual = 0.0030674, Final residual = 2.78042e-05, No Iterations 10
time step continuity errors : sum local = 3.25273e-07, global = -8.64041e-08, cumulative = -3.37249e-07
PIMPLE: iteration 2
DILUPBiCG:  Solving for Ux, Initial residual = 0.00982649, Final residual = 3.79091e-05, No Iterations 1
DILUPBiCG:  Solving for Uy, Initial residual = 0.00157873, Final residual = 6.43141e-06, No Iterations 1
DILUPBiCG:  Solving for Uz, Initial residual = 0.00266497, Final residual = 8.22788e-06, No Iterations 1
GAMG:  Solving for p, Initial residual = 0.0459921, Final residual = 0.000321794, No Iterations 6
GAMG:  Solving for p, Initial residual = 0.00992433, Final residual = 9.5706e-05, No Iterations 14
GAMG:  Solving for p, Initial residual = 0.00367619, Final residual = 3.56474e-05, No Iterations 12
time step continuity errors : sum local = 3.53899e-07, global = 1.01658e-07, cumulative = -2.35591e-07
GAMG:  Solving for p, Initial residual = 0.0239935, Final residual = 0.000215395, No Iterations 5
GAMG:  Solving for p, Initial residual = 0.00477172, Final residual = 4.72725e-05, No Iterations 11
GAMG:  Solving for p, Initial residual = 0.00168874, Final residual = 1.61543e-05, No Iterations 14
time step continuity errors : sum local = 1.61522e-07, global = 4.92799e-08, cumulative = -1.86311e-07
PIMPLE: iteration 3
DILUPBiCG:  Solving for Ux, Initial residual = 0.00221949, Final residual = 9.45221e-07, No Iterations 2
DILUPBiCG:  Solving for Uy, Initial residual = 0.00036294, Final residual = 9.67875e-06, No Iterations 1
DILUPBiCG:  Solving for Uz, Initial residual = 0.00552576, Final residual = 7.00099e-06, No Iterations 2
GAMG:  Solving for p, Initial residual = 0.0441247, Final residual = 0.000375231, No Iterations 5
GAMG:  Solving for p, Initial residual = 0.0117124, Final residual = 0.000112287, No Iterations 10
GAMG:  Solving for p, Initial residual = 0.00512596, Final residual = 4.554e-05, No Iterations 12
time step continuity errors : sum local = 5.05102e-07, global = 1.48969e-07, cumulative = -3.73419e-08
GAMG:  Solving for p, Initial residual = 0.0030111, Final residual = 3.00762e-05, No Iterations 16
GAMG:  Solving for p, Initial residual = 0.00179803, Final residual = 1.62178e-05, No Iterations 4
GAMG:  Solving for p, Initial residual = 0.000636012, Final residual = 9.31174e-07, No Iterations 40
time step continuity errors : sum local = 1.02869e-08, global = -3.04392e-09, cumulative = -4.03858e-08
DILUPBiCG:  Solving for omega, Initial residual = 0.00102841, Final residual = 1.19859e-06, No Iterations 1
DILUPBiCG:  Solving for k, Initial residual = 0.00627291, Final residual = 1.34606e-06, No Iterations 2
ExecutionTime = 65.85 s  ClockTime = 66 s

Courant Number mean: 0.25497 max: 0.559195
Time = 0.439

GAMG:  Solving for cellDisplacementx, Initial residual = 0, Final residual = 0, No Iterations 0
GAMG:  Solving for cellDisplacementy, Initial residual = 0, Final residual = 0, No Iterations 0
GAMG:  Solving for cellDisplacementz, Initial residual = 0, Final residual = 0, No Iterations 0
PIMPLE: iteration 1
DILUPBiCG:  Solving for Ux, Initial residual = 0.0323944, Final residual = 0.000106568, No Iterations 1
DILUPBiCG:  Solving for Uy, Initial residual = 0.00506228, Final residual = 1.31249e-05, No Iterations 1
DILUPBiCG:  Solving for Uz, Initial residual = 0.0100435, Final residual = 1.78607e-05, No Iterations 1
GAMG:  Solving for p, Initial residual = 0.104962, Final residual = 0.000971486, No Iterations 4
GAMG:  Solving for p, Initial residual = 0.0138545, Final residual = 0.000124124, No Iterations 18
GAMG:  Solving for p, Initial residual = 0.00626164, Final residual = 5.81855e-05, No Iterations 10
time step continuity errors : sum local = 6.46297e-07, global = -1.71357e-07, cumulative = -2.11742e-07
GAMG:  Solving for p, Initial residual = 0.0465146, Final residual = 0.000365888, No Iterations 4
GAMG:  Solving for p, Initial residual = 0.00678435, Final residual = 6.11807e-05, No Iterations 16
GAMG:  Solving for p, Initial residual = 0.00312929, Final residual = 3.02273e-05, No Iterations 10
time step continuity errors : sum local = 3.35872e-07, global = -9.06696e-08, cumulative = -3.02412e-07
PIMPLE: iteration 2
DILUPBiCG:  Solving for Ux, Initial residual = 0.00911843, Final residual = 3.51349e-05, No Iterations 1
DILUPBiCG:  Solving for Uy, Initial residual = 0.00146132, Final residual = 6.32698e-06, No Iterations 1
DILUPBiCG:  Solving for Uz, Initial residual = 0.00280322, Final residual = 8.48826e-06, No Iterations 1
GAMG:  Solving for p, Initial residual = 0.045688, Final residual = 0.000326101, No Iterations 6
GAMG:  Solving for p, Initial residual = 0.0104397, Final residual = 9.443e-05, No Iterations 14
GAMG:  Solving for p, Initial residual = 0.00385657, Final residual = 3.59187e-05, No Iterations 12
time step continuity errors : sum local = 3.38628e-07, global = 9.71236e-08, cumulative = -2.05288e-07
GAMG:  Solving for p, Initial residual = 0.0239401, Final residual = 0.000218886, No Iterations 5
GAMG:  Solving for p, Initial residual = 0.00502202, Final residual = 4.72403e-05, No Iterations 11
GAMG:  Solving for p, Initial residual = 0.00174689, Final residual = 1.59163e-05, No Iterations 14
time step continuity errors : sum local = 1.51185e-07, global = 4.65298e-08, cumulative = -1.58759e-07
PIMPLE: iteration 3
DILUPBiCG:  Solving for Ux, Initial residual = 0.00204833, Final residual = 8.37994e-07, No Iterations 2
DILUPBiCG:  Solving for Uy, Initial residual = 0.000332446, Final residual = 8.96923e-06, No Iterations 1
DILUPBiCG:  Solving for Uz, Initial residual = 0.00579276, Final residual = 7.2234e-08, No Iterations 3
GAMG:  Solving for p, Initial residual = 0.0446077, Final residual = 0.000374263, No Iterations 5
GAMG:  Solving for p, Initial residual = 0.0119522, Final residual = 0.000112234, No Iterations 10
GAMG:  Solving for p, Initial residual = 0.00512765, Final residual = 4.49643e-05, No Iterations 12
time step continuity errors : sum local = 4.73432e-07, global = 1.39787e-07, cumulative = -1.89713e-08
GAMG:  Solving for p, Initial residual = 0.00307504, Final residual = 3.07347e-05, No Iterations 16
GAMG:  Solving for p, Initial residual = 0.00185437, Final residual = 1.60065e-05, No Iterations 4
GAMG:  Solving for p, Initial residual = 0.000637053, Final residual = 9.23796e-07, No Iterations 40
time step continuity errors : sum local = 9.6926e-09, global = -2.86856e-09, cumulative = -2.18399e-08
DILUPBiCG:  Solving for omega, Initial residual = 0.00106253, Final residual = 1.25916e-06, No Iterations 1
DILUPBiCG:  Solving for k, Initial residual = 0.00634564, Final residual = 1.33806e-06, No Iterations 2
ExecutionTime = 74.2 s  ClockTime = 75 s

Courant Number mean: 0.258803 max: 0.568283
Time = 0.44

GAMG:  Solving for cellDisplacementx, Initial residual = 0, Final residual = 0, No Iterations 0
GAMG:  Solving for cellDisplacementy, Initial residual = 0, Final residual = 0, No Iterations 0
GAMG:  Solving for cellDisplacementz, Initial residual = 0, Final residual = 0, No Iterations 0
PIMPLE: iteration 1
DILUPBiCG:  Solving for Ux, Initial residual = 0.0299498, Final residual = 9.93179e-05, No Iterations 1
DILUPBiCG:  Solving for Uy, Initial residual = 0.0046492, Final residual = 1.23533e-05, No Iterations 1
DILUPBiCG:  Solving for Uz, Initial residual = 0.0103221, Final residual = 1.82891e-05, No Iterations 1
GAMG:  Solving for p, Initial residual = 0.103098, Final residual = 0.00087899, No Iterations 4
GAMG:  Solving for p, Initial residual = 0.0136803, Final residual = 0.000133541, No Iterations 16
GAMG:  Solving for p, Initial residual = 0.00614797, Final residual = 5.07235e-05, No Iterations 12
time step continuity errors : sum local = 5.296e-07, global = -1.58942e-07, cumulative = -1.80782e-07
GAMG:  Solving for p, Initial residual = 0.0460278, Final residual = 0.000334688, No Iterations 4
GAMG:  Solving for p, Initial residual = 0.00667237, Final residual = 6.57748e-05, No Iterations 14
GAMG:  Solving for p, Initial residual = 0.0030532, Final residual = 2.63291e-05, No Iterations 12
time step continuity errors : sum local = 2.75099e-07, global = -8.26516e-08, cumulative = -2.63433e-07
PIMPLE: iteration 2
DILUPBiCG:  Solving for Ux, Initial residual = 0.00839309, Final residual = 3.23714e-05, No Iterations 1
DILUPBiCG:  Solving for Uy, Initial residual = 0.00134649, Final residual = 6.2705e-06, No Iterations 1
DILUPBiCG:  Solving for Uz, Initial residual = 0.00276703, Final residual = 8.67784e-06, No Iterations 1
GAMG:  Solving for p, Initial residual = 0.0450451, Final residual = 0.000327477, No Iterations 6
GAMG:  Solving for p, Initial residual = 0.0104664, Final residual = 9.71588e-05, No Iterations 14
GAMG:  Solving for p, Initial residual = 0.00375242, Final residual = 3.14834e-05, No Iterations 14
time step continuity errors : sum local = 2.79589e-07, global = 8.68372e-08, cumulative = -1.76596e-07
GAMG:  Solving for p, Initial residual = 0.0235838, Final residual = 0.000217473, No Iterations 5
GAMG:  Solving for p, Initial residual = 0.00499133, Final residual = 4.89384e-05, No Iterations 11
GAMG:  Solving for p, Initial residual = 0.00170348, Final residual = 1.68544e-05, No Iterations 14
time step continuity errors : sum local = 1.508e-07, global = 4.58622e-08, cumulative = -1.30734e-07
PIMPLE: iteration 3
DILUPBiCG:  Solving for Ux, Initial residual = 0.00185527, Final residual = 7.19378e-07, No Iterations 2
DILUPBiCG:  Solving for Uy, Initial residual = 0.000304085, Final residual = 9.34279e-06, No Iterations 1
DILUPBiCG:  Solving for Uz, Initial residual = 0.004956, Final residual = 2.87533e-06, No Iterations 2
GAMG:  Solving for p, Initial residual = 0.0455792, Final residual = 0.000379061, No Iterations 5
GAMG:  Solving for p, Initial residual = 0.0122731, Final residual = 0.000100944, No Iterations 12
GAMG:  Solving for p, Initial residual = 0.00539361, Final residual = 5.04159e-05, No Iterations 10
time step continuity errors : sum local = 4.98868e-07, global = 1.31457e-07, cumulative = 7.22745e-10
GAMG:  Solving for p, Initial residual = 0.00318431, Final residual = 3.09739e-05, No Iterations 16
GAMG:  Solving for p, Initial residual = 0.00191522, Final residual = 1.68334e-05, No Iterations 4
GAMG:  Solving for p, Initial residual = 0.00066636, Final residual = 9.70287e-07, No Iterations 40
time step continuity errors : sum local = 9.56696e-09, global = -2.83174e-09, cumulative = -2.10899e-09
DILUPBiCG:  Solving for omega, Initial residual = 0.00109331, Final residual = 1.31784e-06, No Iterations 1
DILUPBiCG:  Solving for k, Initial residual = 0.00638726, Final residual = 1.29479e-06, No Iterations 2
ExecutionTime = 80.42 s  ClockTime = 81 s

End

