/*---------------------------------------------------------------------------*\
| =========                 |                                                 |
| \\      /  F ield         | OpenFOAM: The Open Source CFD Toolbox           |
|  \\    /   O peration     | Version:  2.3.1                                 |
|   \\  /    A nd           | Web:      www.OpenFOAM.org                      |
|    \\/     M anipulation  |                                                 |
\*---------------------------------------------------------------------------*/
Build  : 2.3.1-262087cdf8db
Exec   : pimpleDyMFoam
Date   : Jun 05 2023
Time   : 19:25:57
Host   : "jcosson-VirtualBox"
PID    : 5148
Case   : /home/jcosson/workspace/henersj_shootingdata/calcs/moderate_deformed/primal/56_intervals_05-06-23/sweep42/interval49
nProcs : 1
sigFpe : Enabling floating point exception trapping (FOAM_SIGFPE).
fileModificationChecking : Monitoring run-time modified files using timeStampMaster
allowSystemOperations : Allowing user-supplied system call operations

// * * * * * * * * * * * * * * * * * * * * * * * * * * * * * * * * * * * * * //
Create time

Create mesh for time = 0.486

Selecting dynamicFvMesh dynamicMotionSolverFvMesh
Selecting motion solver: displacementLaplacian
Selecting motion diffusion: quadratic
Selecting motion diffusion: quadratic
Selecting motion diffusion: inverseDistance

PIMPLE: no residual control data found. Calculations will employ 3 corrector loops

Reading field p

Reading field U

Reading/calculating face flux field phi

Selecting incompressible transport model Newtonian
Selecting turbulence model type RASModel
Selecting RAS turbulence model kOmegaSST
bounding k, min: 0 max: 0.000631061 average: 0.000151816
kOmegaSSTCoeffs
{
    alphaK1         0.85034;
    alphaK2         1;
    alphaOmega1     0.5;
    alphaOmega2     0.85616;
    gamma1          0.5532;
    gamma2          0.4403;
    beta1           0.075;
    beta2           0.0828;
    betaStar        0.09;
    a1              0.31;
    c1              10;
    Cmu             0.09;
    b1              1;
    F3              false;
}

Reading/calculating face velocity Uf

No finite volume options present

Courant Number mean: 0.13116 max: 0.284982

Starting time loop

Courant Number mean: 0.13116 max: 0.284982
Time = 0.487

GAMG:  Solving for cellDisplacementx, Initial residual = 0, Final residual = 0, No Iterations 0
GAMG:  Solving for cellDisplacementy, Initial residual = 0, Final residual = 0, No Iterations 0
GAMG:  Solving for cellDisplacementz, Initial residual = 0, Final residual = 0, No Iterations 0
PIMPLE: iteration 1
DILUPBiCG:  Solving for Ux, Initial residual = 0.0614499, Final residual = 0.000242291, No Iterations 1
DILUPBiCG:  Solving for Uy, Initial residual = 0.0118066, Final residual = 2.49108e-05, No Iterations 1
DILUPBiCG:  Solving for Uz, Initial residual = 0.0127656, Final residual = 1.37384e-05, No Iterations 1
GAMG:  Solving for p, Initial residual = 0.117219, Final residual = 0.000863885, No Iterations 4
GAMG:  Solving for p, Initial residual = 0.0151233, Final residual = 0.000132874, No Iterations 18
GAMG:  Solving for p, Initial residual = 0.0071048, Final residual = 5.94581e-05, No Iterations 4
time step continuity errors : sum local = 7.65653e-07, global = 2.72056e-07, cumulative = 2.72056e-07
GAMG:  Solving for p, Initial residual = 0.0522421, Final residual = 0.000364281, No Iterations 4
GAMG:  Solving for p, Initial residual = 0.0075317, Final residual = 6.60191e-05, No Iterations 16
GAMG:  Solving for p, Initial residual = 0.00356495, Final residual = 3.24869e-05, No Iterations 4
time step continuity errors : sum local = 4.20321e-07, global = 1.49469e-07, cumulative = 4.21525e-07
PIMPLE: iteration 2
DILUPBiCG:  Solving for Ux, Initial residual = 0.0161848, Final residual = 0.000100359, No Iterations 1
DILUPBiCG:  Solving for Uy, Initial residual = 0.00322604, Final residual = 6.74201e-06, No Iterations 1
DILUPBiCG:  Solving for Uz, Initial residual = 0.00282899, Final residual = 9.54556e-06, No Iterations 1
GAMG:  Solving for p, Initial residual = 0.0514503, Final residual = 0.000481791, No Iterations 4
GAMG:  Solving for p, Initial residual = 0.00989714, Final residual = 8.52577e-05, No Iterations 16
GAMG:  Solving for p, Initial residual = 0.00447606, Final residual = 4.09942e-05, No Iterations 4
time step continuity errors : sum local = 4.60102e-07, global = -1.80621e-07, cumulative = 2.40904e-07
GAMG:  Solving for p, Initial residual = 0.0269897, Final residual = 0.000227387, No Iterations 4
GAMG:  Solving for p, Initial residual = 0.00527889, Final residual = 5.15719e-05, No Iterations 12
GAMG:  Solving for p, Initial residual = 0.00209537, Final residual = 1.96415e-05, No Iterations 10
time step continuity errors : sum local = 2.21158e-07, global = -5.56371e-08, cumulative = 1.85267e-07
PIMPLE: iteration 3
DILUPBiCG:  Solving for Ux, Initial residual = 0.00353229, Final residual = 3.07814e-06, No Iterations 2
DILUPBiCG:  Solving for Uy, Initial residual = 0.000736236, Final residual = 4.98578e-06, No Iterations 1
DILUPBiCG:  Solving for Uz, Initial residual = 0.00522043, Final residual = 2.73439e-06, No Iterations 2
GAMG:  Solving for p, Initial residual = 0.0439251, Final residual = 0.000330597, No Iterations 5
GAMG:  Solving for p, Initial residual = 0.00994229, Final residual = 9.25923e-05, No Iterations 14
GAMG:  Solving for p, Initial residual = 0.0050049, Final residual = 4.8632e-05, No Iterations 10
time step continuity errors : sum local = 6.12718e-07, global = -1.61355e-07, cumulative = 2.3912e-08
GAMG:  Solving for p, Initial residual = 0.0024512, Final residual = 1.98397e-05, No Iterations 8
GAMG:  Solving for p, Initial residual = 0.00129024, Final residual = 9.47627e-06, No Iterations 5
GAMG:  Solving for p, Initial residual = 0.000519148, Final residual = 9.30354e-07, No Iterations 28
time step continuity errors : sum local = 1.16002e-08, global = 3.48789e-09, cumulative = 2.73999e-08
DILUPBiCG:  Solving for omega, Initial residual = 0.0010645, Final residual = 7.21413e-07, No Iterations 1
DILUPBiCG:  Solving for k, Initial residual = 0.00354451, Final residual = 6.76468e-07, No Iterations 2
bounding k, min: 0 max: 0.000619617 average: 0.000150923
ExecutionTime = 17.17 s  ClockTime = 17 s

Courant Number mean: 0.126885 max: 0.275073
Time = 0.488

GAMG:  Solving for cellDisplacementx, Initial residual = 0, Final residual = 0, No Iterations 0
GAMG:  Solving for cellDisplacementy, Initial residual = 0, Final residual = 0, No Iterations 0
GAMG:  Solving for cellDisplacementz, Initial residual = 0, Final residual = 0, No Iterations 0
PIMPLE: iteration 1
DILUPBiCG:  Solving for Ux, Initial residual = 0.0597054, Final residual = 0.000234755, No Iterations 1
DILUPBiCG:  Solving for Uy, Initial residual = 0.0115823, Final residual = 2.42605e-05, No Iterations 1
DILUPBiCG:  Solving for Uz, Initial residual = 0.0118844, Final residual = 1.21283e-05, No Iterations 1
GAMG:  Solving for p, Initial residual = 0.107228, Final residual = 0.000875041, No Iterations 4
GAMG:  Solving for p, Initial residual = 0.0130797, Final residual = 0.000114855, No Iterations 20
GAMG:  Solving for p, Initial residual = 0.0065613, Final residual = 5.39962e-05, No Iterations 4
time step continuity errors : sum local = 6.6443e-07, global = 2.35913e-07, cumulative = 2.63313e-07
GAMG:  Solving for p, Initial residual = 0.0479872, Final residual = 0.000359028, No Iterations 4
GAMG:  Solving for p, Initial residual = 0.00651256, Final residual = 5.80831e-05, No Iterations 18
GAMG:  Solving for p, Initial residual = 0.00327743, Final residual = 2.73296e-05, No Iterations 4
time step continuity errors : sum local = 3.37852e-07, global = 1.1898e-07, cumulative = 3.82293e-07
PIMPLE: iteration 2
DILUPBiCG:  Solving for Ux, Initial residual = 0.0156096, Final residual = 9.67719e-05, No Iterations 1
DILUPBiCG:  Solving for Uy, Initial residual = 0.00315176, Final residual = 6.5571e-06, No Iterations 1
DILUPBiCG:  Solving for Uz, Initial residual = 0.00290012, Final residual = 9.28461e-06, No Iterations 1
GAMG:  Solving for p, Initial residual = 0.0463614, Final residual = 0.000308666, No Iterations 6
GAMG:  Solving for p, Initial residual = 0.00877485, Final residual = 7.64685e-05, No Iterations 16
GAMG:  Solving for p, Initial residual = 0.00344716, Final residual = 3.15845e-05, No Iterations 10
time step continuity errors : sum local = 3.39336e-07, global = -8.80848e-08, cumulative = 2.94208e-07
GAMG:  Solving for p, Initial residual = 0.0241566, Final residual = 0.000223642, No Iterations 4
GAMG:  Solving for p, Initial residual = 0.00440692, Final residual = 4.30787e-05, No Iterations 14
GAMG:  Solving for p, Initial residual = 0.00177103, Final residual = 1.73628e-05, No Iterations 10
time step continuity errors : sum local = 1.87362e-07, global = -4.74604e-08, cumulative = 2.46748e-07
PIMPLE: iteration 3
DILUPBiCG:  Solving for Ux, Initial residual = 0.00336406, Final residual = 3.04279e-06, No Iterations 2
DILUPBiCG:  Solving for Uy, Initial residual = 0.000724442, Final residual = 4.96986e-06, No Iterations 1
DILUPBiCG:  Solving for Uz, Initial residual = 0.00551475, Final residual = 2.68935e-06, No Iterations 2
GAMG:  Solving for p, Initial residual = 0.0441052, Final residual = 0.000324827, No Iterations 5
GAMG:  Solving for p, Initial residual = 0.00986881, Final residual = 9.14742e-05, No Iterations 14
GAMG:  Solving for p, Initial residual = 0.00504959, Final residual = 4.67455e-05, No Iterations 10
time step continuity errors : sum local = 5.63329e-07, global = -1.47876e-07, cumulative = 9.88715e-08
GAMG:  Solving for p, Initial residual = 0.00245452, Final residual = 2.45157e-05, No Iterations 7
GAMG:  Solving for p, Initial residual = 0.00132297, Final residual = 1.0519e-05, No Iterations 6
GAMG:  Solving for p, Initial residual = 0.000546822, Final residual = 8.74049e-07, No Iterations 30
time step continuity errors : sum local = 1.04158e-08, global = 3.14646e-09, cumulative = 1.02018e-07
DILUPBiCG:  Solving for omega, Initial residual = 0.00109858, Final residual = 7.1773e-07, No Iterations 1
DILUPBiCG:  Solving for k, Initial residual = 0.00348507, Final residual = 6.82376e-07, No Iterations 2
bounding k, min: 0 max: 0.000607524 average: 0.000150057
ExecutionTime = 29.4 s  ClockTime = 29 s

End

