/*---------------------------------------------------------------------------*\
| =========                 |                                                 |
| \\      /  F ield         | OpenFOAM: The Open Source CFD Toolbox           |
|  \\    /   O peration     | Version:  2.3.1                                 |
|   \\  /    A nd           | Web:      www.OpenFOAM.org                      |
|    \\/     M anipulation  |                                                 |
\*---------------------------------------------------------------------------*/
Build  : 2.3.1-262087cdf8db
Exec   : linearisedPimpleDyMFoam
Date   : Jun 05 2023
Time   : 18:35:58
Host   : "jcosson-VirtualBox"
PID    : 20400
Case   : /home/jcosson/workspace/henersj_shootingdata/calcs/moderate_deformed/primal/56_intervals_05-06-23/sweep16/interval33
nProcs : 1
sigFpe : Enabling floating point exception trapping (FOAM_SIGFPE).
fileModificationChecking : Monitoring run-time modified files using timeStampMaster
allowSystemOperations : Allowing user-supplied system call operations

// * * * * * * * * * * * * * * * * * * * * * * * * * * * * * * * * * * * * * //
Create time

Create mesh for time = 0.457

Selecting dynamicFvMesh dynamicMotionSolverFvMesh
Selecting motion solver: displacementLaplacian
Selecting motion diffusion: quadratic
Selecting motion diffusion: quadratic
Selecting motion diffusion: inverseDistance
Reading field linP

Reading field linU

starte createPhia.H

Reading/calculating face flux field linPhi

Adjungierte Interpolation durchgefuehrt

createPhia.H verlassen

setRefCell ausgefuehrt

No finite volume options present


PIMPLE: no residual control data found. Calculations will employ 3 corrector loops


Starting time loop

Time = 0.458

Reading field p

Reading field U

Read primal fluxes 

Reading primal face flux fields phi/meshPhi

Created primal fluxes 

Selecting incompressible transport model Newtonian
singlePhaseTransportModel gewaehlt 

Selecting turbulence model type RASModel
Selecting RAS turbulence model kOmegaSST
kOmegaSSTCoeffs
{
    alphaK1         0.85034;
    alphaK2         1;
    alphaOmega1     0.5;
    alphaOmega2     0.85616;
    gamma1          0.5532;
    gamma2          0.4403;
    beta1           0.075;
    beta2           0.0828;
    betaStar        0.09;
    a1              0.31;
    c1              10;
    Cmu             0.09;
    b1              1;
    F3              false;
}

autoPtr ausgefuehrt

Reading/calculating face velocity Uf

Init adjoint face velocity linUf

Courant Number mean: 0.268608 max: 0.593802
Adjoint Courant Number mean: 0.000187952 max: 0.00408992
GAMG:  Solving for cellDisplacementx, Initial residual = 0, Final residual = 0, No Iterations 0
GAMG:  Solving for cellDisplacementy, Initial residual = 0, Final residual = 0, No Iterations 0
GAMG:  Solving for cellDisplacementz, Initial residual = 0, Final residual = 0, No Iterations 0
PIMPLE: iteration 1
DILUPBiCG:  Solving for linUx, Initial residual = 0.0486614, Final residual = 0.000160159, No Iterations 1
DILUPBiCG:  Solving for linUy, Initial residual = 0.0907856, Final residual = 0.000239682, No Iterations 1
DILUPBiCG:  Solving for linUz, Initial residual = 0.118314, Final residual = 0.000336793, No Iterations 1
GAMG:  Solving for linP, Initial residual = 1, Final residual = 0.00333835, No Iterations 3
GAMG:  Solving for linP, Initial residual = 0.0188046, Final residual = 0.000140022, No Iterations 4
GAMG:  Solving for linP, Initial residual = 0.00627112, Final residual = 5.76622e-05, No Iterations 4
Adjoint continuity errors : sum local = 1.71581e-08, global = -3.55502e-09, cumulative = -3.55502e-09
GAMG:  Solving for linP, Initial residual = 0.0431897, Final residual = 0.000340758, No Iterations 3
GAMG:  Solving for linP, Initial residual = 0.00580985, Final residual = 4.53353e-05, No Iterations 4
GAMG:  Solving for linP, Initial residual = 0.00203808, Final residual = 1.6516e-05, No Iterations 4
Adjoint continuity errors : sum local = 4.64188e-09, global = 3.86077e-10, cumulative = -3.16895e-09
PIMPLE: iteration 2
DILUPBiCG:  Solving for linUx, Initial residual = 0.00699218, Final residual = 3.29801e-05, No Iterations 1
DILUPBiCG:  Solving for linUy, Initial residual = 0.0154709, Final residual = 5.25802e-05, No Iterations 1
DILUPBiCG:  Solving for linUz, Initial residual = 0.0195451, Final residual = 7.20169e-05, No Iterations 1
GAMG:  Solving for linP, Initial residual = 0.0563147, Final residual = 0.000201614, No Iterations 3
GAMG:  Solving for linP, Initial residual = 0.00361627, Final residual = 3.31406e-05, No Iterations 3
GAMG:  Solving for linP, Initial residual = 0.00108856, Final residual = 5.96168e-06, No Iterations 4
Adjoint continuity errors : sum local = 1.69578e-09, global = 3.99568e-10, cumulative = -2.76938e-09
GAMG:  Solving for linP, Initial residual = 0.00409966, Final residual = 3.40766e-05, No Iterations 3
GAMG:  Solving for linP, Initial residual = 0.000743869, Final residual = 3.27183e-06, No Iterations 4
GAMG:  Solving for linP, Initial residual = 0.000255837, Final residual = 2.5023e-06, No Iterations 3
Adjoint continuity errors : sum local = 7.12054e-10, global = 1.71596e-11, cumulative = -2.75222e-09
PIMPLE: iteration 3
DILUPBiCG:  Solving for linUx, Initial residual = 0.00114223, Final residual = 6.33509e-06, No Iterations 1
DILUPBiCG:  Solving for linUy, Initial residual = 0.00261925, Final residual = 4.26574e-07, No Iterations 2
DILUPBiCG:  Solving for linUz, Initial residual = 0.00233276, Final residual = 8.9252e-06, No Iterations 1
GAMG:  Solving for linP, Initial residual = 0.0425046, Final residual = 0.000332131, No Iterations 2
GAMG:  Solving for linP, Initial residual = 0.00163402, Final residual = 6.18839e-06, No Iterations 4
GAMG:  Solving for linP, Initial residual = 0.000584983, Final residual = 2.55036e-06, No Iterations 4
Adjoint continuity errors : sum local = 7.47349e-10, global = 1.11439e-10, cumulative = -2.64078e-09
GAMG:  Solving for linP, Initial residual = 0.00250985, Final residual = 8.46563e-06, No Iterations 3
GAMG:  Solving for linP, Initial residual = 0.000231235, Final residual = 1.25107e-06, No Iterations 4
GAMG:  Solving for linP, Initial residual = 8.47092e-05, Final residual = 9.32378e-07, No Iterations 3
Adjoint continuity errors : sum local = 2.74087e-10, global = -2.77345e-11, cumulative = -2.66852e-09
ExecutionTime = 11.12 s  ClockTime = 11 s

Time = 0.459

Reading field p

Reading field U

Read primal fluxes 

Reading primal face flux fields phi/meshPhi

Created primal fluxes 

Selecting incompressible transport model Newtonian
singlePhaseTransportModel gewaehlt 

Selecting turbulence model type RASModel
Selecting RAS turbulence model kOmegaSST
kOmegaSSTCoeffs
{
    alphaK1         0.85034;
    alphaK2         1;
    alphaOmega1     0.5;
    alphaOmega2     0.85616;
    gamma1          0.5532;
    gamma2          0.4403;
    beta1           0.075;
    beta2           0.0828;
    betaStar        0.09;
    a1              0.31;
    c1              10;
    Cmu             0.09;
    b1              1;
    F3              false;
}

autoPtr ausgefuehrt

Reading/calculating face velocity Uf

Init adjoint face velocity linUf

Courant Number mean: 0.265701 max: 0.587603
Adjoint Courant Number mean: 0.000172014 max: 0.0143149
GAMG:  Solving for cellDisplacementx, Initial residual = 0, Final residual = 0, No Iterations 0
GAMG:  Solving for cellDisplacementy, Initial residual = 0, Final residual = 0, No Iterations 0
GAMG:  Solving for cellDisplacementz, Initial residual = 0, Final residual = 0, No Iterations 0
PIMPLE: iteration 1
DILUPBiCG:  Solving for linUx, Initial residual = 0.0433155, Final residual = 0.000134817, No Iterations 1
DILUPBiCG:  Solving for linUy, Initial residual = 0.0897652, Final residual = 0.000268321, No Iterations 1
DILUPBiCG:  Solving for linUz, Initial residual = 0.120881, Final residual = 0.000374691, No Iterations 1
GAMG:  Solving for linP, Initial residual = 0.28729, Final residual = 0.0011121, No Iterations 3
GAMG:  Solving for linP, Initial residual = 0.00957359, Final residual = 6.55758e-05, No Iterations 4
GAMG:  Solving for linP, Initial residual = 0.00259929, Final residual = 1.67869e-05, No Iterations 4
Adjoint continuity errors : sum local = 7.23045e-09, global = 1.05328e-09, cumulative = -1.61524e-09
GAMG:  Solving for linP, Initial residual = 0.013881, Final residual = 0.000134166, No Iterations 3
GAMG:  Solving for linP, Initial residual = 0.00225824, Final residual = 1.06682e-05, No Iterations 4
GAMG:  Solving for linP, Initial residual = 0.000660534, Final residual = 6.07357e-06, No Iterations 3
Adjoint continuity errors : sum local = 2.58724e-09, global = -4.19172e-11, cumulative = -1.65716e-09
PIMPLE: iteration 2
DILUPBiCG:  Solving for linUx, Initial residual = 0.00544452, Final residual = 0.000137322, No Iterations 1
DILUPBiCG:  Solving for linUy, Initial residual = 0.010851, Final residual = 0.000161587, No Iterations 1
DILUPBiCG:  Solving for linUz, Initial residual = 0.0109237, Final residual = 2.67499e-05, No Iterations 1
GAMG:  Solving for linP, Initial residual = 0.0270242, Final residual = 0.000267875, No Iterations 2
GAMG:  Solving for linP, Initial residual = 0.00094498, Final residual = 5.88363e-06, No Iterations 4
GAMG:  Solving for linP, Initial residual = 0.000269019, Final residual = 1.84403e-06, No Iterations 4
Adjoint continuity errors : sum local = 7.8998e-10, global = 1.11339e-10, cumulative = -1.54582e-09
GAMG:  Solving for linP, Initial residual = 0.00160924, Final residual = 5.83488e-06, No Iterations 3
GAMG:  Solving for linP, Initial residual = 0.00014745, Final residual = 6.12089e-07, No Iterations 4
GAMG:  Solving for linP, Initial residual = 4.24755e-05, Final residual = 8.69592e-07, No Iterations 3
Adjoint continuity errors : sum local = 3.72609e-10, global = 9.32168e-12, cumulative = -1.53649e-09
PIMPLE: iteration 3
DILUPBiCG:  Solving for linUx, Initial residual = 0.000989541, Final residual = 4.4766e-06, No Iterations 1
DILUPBiCG:  Solving for linUy, Initial residual = 0.00210965, Final residual = 7.85381e-06, No Iterations 1
DILUPBiCG:  Solving for linUz, Initial residual = 0.0019044, Final residual = 6.42551e-06, No Iterations 1
GAMG:  Solving for linP, Initial residual = 0.0441747, Final residual = 0.000121835, No Iterations 3
GAMG:  Solving for linP, Initial residual = 0.000848385, Final residual = 7.53762e-06, No Iterations 3
GAMG:  Solving for linP, Initial residual = 0.000232041, Final residual = 1.518e-06, No Iterations 4
Adjoint continuity errors : sum local = 6.63891e-10, global = -2.97079e-11, cumulative = -1.5662e-09
GAMG:  Solving for linP, Initial residual = 0.00213661, Final residual = 7.33108e-06, No Iterations 3
GAMG:  Solving for linP, Initial residual = 0.000128652, Final residual = 1.10964e-06, No Iterations 3
GAMG:  Solving for linP, Initial residual = 3.93148e-05, Final residual = 5.03616e-07, No Iterations 3
Adjoint continuity errors : sum local = 2.20797e-10, global = -1.02123e-11, cumulative = -1.57641e-09
ExecutionTime = 21.6 s  ClockTime = 22 s

End

