/*---------------------------------------------------------------------------*\
| =========                 |                                                 |
| \\      /  F ield         | OpenFOAM: The Open Source CFD Toolbox           |
|  \\    /   O peration     | Version:  2.3.1                                 |
|   \\  /    A nd           | Web:      www.OpenFOAM.org                      |
|    \\/     M anipulation  |                                                 |
\*---------------------------------------------------------------------------*/
Build  : 2.3.1-262087cdf8db
Exec   : linearisedPimpleDyMFoam
Date   : Jun 05 2023
Time   : 23:50:20
Host   : "jcosson-VirtualBox"
PID    : 17402
Case   : /home/jcosson/workspace/henersj_shootingdata/calcs/moderate_deformed/primal/100_intervals_05-06-23/sweep7/interval39
nProcs : 1
sigFpe : Enabling floating point exception trapping (FOAM_SIGFPE).
fileModificationChecking : Monitoring run-time modified files using timeStampMaster
allowSystemOperations : Allowing user-supplied system call operations

// * * * * * * * * * * * * * * * * * * * * * * * * * * * * * * * * * * * * * //
Create time

Create mesh for time = 0.438

Selecting dynamicFvMesh dynamicMotionSolverFvMesh
Selecting motion solver: displacementLaplacian
Selecting motion diffusion: quadratic
Selecting motion diffusion: quadratic
Selecting motion diffusion: inverseDistance
Reading field linP

Reading field linU

starte createPhia.H

Reading/calculating face flux field linPhi

Adjungierte Interpolation durchgefuehrt

createPhia.H verlassen

setRefCell ausgefuehrt

No finite volume options present


PIMPLE: no residual control data found. Calculations will employ 3 corrector loops


Starting time loop

Time = 0.439

Reading field p

Reading field U

Read primal fluxes 

Reading primal face flux fields phi/meshPhi

Created primal fluxes 

Selecting incompressible transport model Newtonian
singlePhaseTransportModel gewaehlt 

Selecting turbulence model type RASModel
Selecting RAS turbulence model kOmegaSST
kOmegaSSTCoeffs
{
    alphaK1         0.85034;
    alphaK2         1;
    alphaOmega1     0.5;
    alphaOmega2     0.85616;
    gamma1          0.5532;
    gamma2          0.4403;
    beta1           0.075;
    beta2           0.0828;
    betaStar        0.09;
    a1              0.31;
    c1              10;
    Cmu             0.09;
    b1              1;
    F3              false;
}

autoPtr ausgefuehrt

Reading/calculating face velocity Uf

Init adjoint face velocity linUf

Courant Number mean: 0.258318 max: 0.574231
Adjoint Courant Number mean: 0.000167294 max: 0.00482476
GAMG:  Solving for cellDisplacementx, Initial residual = 0, Final residual = 0, No Iterations 0
GAMG:  Solving for cellDisplacementy, Initial residual = 0, Final residual = 0, No Iterations 0
GAMG:  Solving for cellDisplacementz, Initial residual = 0, Final residual = 0, No Iterations 0
PIMPLE: iteration 1
DILUPBiCG:  Solving for linUx, Initial residual = 0.0858629, Final residual = 0.000229387, No Iterations 1
DILUPBiCG:  Solving for linUy, Initial residual = 0.166233, Final residual = 0.000295993, No Iterations 1
DILUPBiCG:  Solving for linUz, Initial residual = 0.162841, Final residual = 0.000346914, No Iterations 1
GAMG:  Solving for linP, Initial residual = 1, Final residual = 0.00394957, No Iterations 3
GAMG:  Solving for linP, Initial residual = 0.0218778, Final residual = 0.000187097, No Iterations 4
GAMG:  Solving for linP, Initial residual = 0.00746328, Final residual = 5.3353e-05, No Iterations 4
Adjoint continuity errors : sum local = 2.9028e-08, global = -4.17606e-09, cumulative = -4.17606e-09
GAMG:  Solving for linP, Initial residual = 0.0349309, Final residual = 0.000319412, No Iterations 3
GAMG:  Solving for linP, Initial residual = 0.00583343, Final residual = 3.74252e-05, No Iterations 4
GAMG:  Solving for linP, Initial residual = 0.00203577, Final residual = 1.71944e-05, No Iterations 4
Adjoint continuity errors : sum local = 9.01751e-09, global = 3.68347e-10, cumulative = -3.80772e-09
PIMPLE: iteration 2
DILUPBiCG:  Solving for linUx, Initial residual = 0.0238271, Final residual = 8.52806e-05, No Iterations 1
DILUPBiCG:  Solving for linUy, Initial residual = 0.0399526, Final residual = 0.000100864, No Iterations 1
DILUPBiCG:  Solving for linUz, Initial residual = 0.0505019, Final residual = 0.000152001, No Iterations 1
GAMG:  Solving for linP, Initial residual = 0.0461492, Final residual = 0.000237932, No Iterations 3
GAMG:  Solving for linP, Initial residual = 0.00391338, Final residual = 2.74964e-05, No Iterations 4
GAMG:  Solving for linP, Initial residual = 0.00129636, Final residual = 7.68809e-06, No Iterations 4
Adjoint continuity errors : sum local = 4.07175e-09, global = 9.26065e-10, cumulative = -2.88165e-09
GAMG:  Solving for linP, Initial residual = 0.00349827, Final residual = 2.08564e-05, No Iterations 4
GAMG:  Solving for linP, Initial residual = 0.000864216, Final residual = 4.57275e-06, No Iterations 4
GAMG:  Solving for linP, Initial residual = 0.000264147, Final residual = 1.99963e-06, No Iterations 4
Adjoint continuity errors : sum local = 1.05923e-09, global = 5.32219e-11, cumulative = -2.82843e-09
PIMPLE: iteration 3
DILUPBiCG:  Solving for linUx, Initial residual = 0.00356638, Final residual = 1.24581e-07, No Iterations 2
DILUPBiCG:  Solving for linUy, Initial residual = 0.00539766, Final residual = 8.97975e-08, No Iterations 2
DILUPBiCG:  Solving for linUz, Initial residual = 0.00487363, Final residual = 1.78442e-07, No Iterations 2
GAMG:  Solving for linP, Initial residual = 0.0434338, Final residual = 0.000375773, No Iterations 2
GAMG:  Solving for linP, Initial residual = 0.00171229, Final residual = 9.87581e-06, No Iterations 5
GAMG:  Solving for linP, Initial residual = 0.000845304, Final residual = 5.41323e-06, No Iterations 4
Adjoint continuity errors : sum local = 2.93694e-09, global = -3.38961e-10, cumulative = -3.16739e-09
GAMG:  Solving for linP, Initial residual = 0.00226846, Final residual = 2.03205e-05, No Iterations 2
GAMG:  Solving for linP, Initial residual = 0.000214929, Final residual = 9.91849e-07, No Iterations 4
GAMG:  Solving for linP, Initial residual = 0.00010025, Final residual = 4.12252e-07, No Iterations 4
Adjoint continuity errors : sum local = 2.24314e-10, global = 3.8866e-11, cumulative = -3.12853e-09
ExecutionTime = 11.84 s  ClockTime = 12 s

End

