/*---------------------------------------------------------------------------*\
| =========                 |                                                 |
| \\      /  F ield         | OpenFOAM: The Open Source CFD Toolbox           |
|  \\    /   O peration     | Version:  2.3.1                                 |
|   \\  /    A nd           | Web:      www.OpenFOAM.org                      |
|    \\/     M anipulation  |                                                 |
\*---------------------------------------------------------------------------*/
Build  : 2.3.1-262087cdf8db
Exec   : computeShootingDefect
Date   : Jun 05 2023
Time   : 23:49:27
Host   : "jcosson-VirtualBox"
PID    : 15829
Case   : /home/jcosson/workspace/henersj_shootingdata/calcs/moderate_deformed/primal/100_intervals_05-06-23/sweep7/interval64/shootingDefect
nProcs : 1
sigFpe : Enabling floating point exception trapping (FOAM_SIGFPE).
fileModificationChecking : Monitoring run-time modified files using timeStampMaster
allowSystemOperations : Allowing user-supplied system call operations

// * * * * * * * * * * * * * * * * * * * * * * * * * * * * * * * * * * * * * //
Create time

Create mesh for time = 0

Time = 0

    Calculation completed 
    write shootingDefectP 

    Calculation completed 
    write shootingDefectU 

    Calculation completed 
    write shootingDefectPhi 

Calculating Continuity Defect ...
shooting sweep continuity defects (velocity): sum local = 0.0955158, global = 2.64892e-05
shooting sweep continuity defects (fluxes): sum local = 0.000712629, global = 8.79731e-08
End
