/*---------------------------------------------------------------------------*\
| =========                 |                                                 |
| \\      /  F ield         | OpenFOAM: The Open Source CFD Toolbox           |
|  \\    /   O peration     | Version:  2.3.1                                 |
|   \\  /    A nd           | Web:      www.OpenFOAM.org                      |
|    \\/     M anipulation  |                                                 |
\*---------------------------------------------------------------------------*/
Build  : 2.3.1-262087cdf8db
Exec   : linearisedPimpleDyMFoam
Date   : Jun 06 2023
Time   : 02:32:04
Host   : "jcosson-VirtualBox"
PID    : 1727
Case   : /home/jcosson/workspace/henersj_shootingdata/calcs/moderate_deformed/primal/100_intervals_05-06-23/sweep64/interval86
nProcs : 1
sigFpe : Enabling floating point exception trapping (FOAM_SIGFPE).
fileModificationChecking : Monitoring run-time modified files using timeStampMaster
allowSystemOperations : Allowing user-supplied system call operations

// * * * * * * * * * * * * * * * * * * * * * * * * * * * * * * * * * * * * * //
Create time

Create mesh for time = 0.485

Selecting dynamicFvMesh dynamicMotionSolverFvMesh
Selecting motion solver: displacementLaplacian
Selecting motion diffusion: quadratic
Selecting motion diffusion: quadratic
Selecting motion diffusion: inverseDistance
Reading field linP

Reading field linU

starte createPhia.H

Reading/calculating face flux field linPhi

Adjungierte Interpolation durchgefuehrt

createPhia.H verlassen

setRefCell ausgefuehrt

No finite volume options present


PIMPLE: no residual control data found. Calculations will employ 3 corrector loops


Starting time loop

Time = 0.486

Reading field p

Reading field U

Read primal fluxes 

Reading primal face flux fields phi/meshPhi

Created primal fluxes 

Selecting incompressible transport model Newtonian
singlePhaseTransportModel gewaehlt 

Selecting turbulence model type RASModel
Selecting RAS turbulence model kOmegaSST
bounding k, min: 0 max: 0.000642876 average: 0.000152485
kOmegaSSTCoeffs
{
    alphaK1         0.85034;
    alphaK2         1;
    alphaOmega1     0.5;
    alphaOmega2     0.85616;
    gamma1          0.5532;
    gamma2          0.4403;
    beta1           0.075;
    beta2           0.0828;
    betaStar        0.09;
    a1              0.31;
    c1              10;
    Cmu             0.09;
    b1              1;
    F3              false;
}

autoPtr ausgefuehrt

Reading/calculating face velocity Uf

Init adjoint face velocity linUf

Courant Number mean: 0.13126 max: 0.284822
Adjoint Courant Number mean: 0.000124685 max: 0.00145342
GAMG:  Solving for cellDisplacementx, Initial residual = 0, Final residual = 0, No Iterations 0
GAMG:  Solving for cellDisplacementy, Initial residual = 0, Final residual = 0, No Iterations 0
GAMG:  Solving for cellDisplacementz, Initial residual = 0, Final residual = 0, No Iterations 0
PIMPLE: iteration 1
DILUPBiCG:  Solving for linUx, Initial residual = 0.0171331, Final residual = 5.33643e-05, No Iterations 1
DILUPBiCG:  Solving for linUy, Initial residual = 0.0320218, Final residual = 7.57295e-05, No Iterations 1
DILUPBiCG:  Solving for linUz, Initial residual = 0.0625194, Final residual = 0.000118883, No Iterations 1
GAMG:  Solving for linP, Initial residual = 1, Final residual = 0.00392386, No Iterations 3
GAMG:  Solving for linP, Initial residual = 0.024018, Final residual = 0.000199901, No Iterations 4
GAMG:  Solving for linP, Initial residual = 0.00804823, Final residual = 6.97479e-05, No Iterations 3
Adjoint continuity errors : sum local = 4.20201e-09, global = 7.5441e-11, cumulative = 7.5441e-11
GAMG:  Solving for linP, Initial residual = 0.0251679, Final residual = 0.00010221, No Iterations 4
GAMG:  Solving for linP, Initial residual = 0.00479998, Final residual = 3.08237e-05, No Iterations 4
GAMG:  Solving for linP, Initial residual = 0.00173477, Final residual = 1.68781e-05, No Iterations 4
Adjoint continuity errors : sum local = 9.81519e-10, global = -7.62205e-12, cumulative = 6.78189e-11
PIMPLE: iteration 2
DILUPBiCG:  Solving for linUx, Initial residual = 0.00158203, Final residual = 1.55239e-05, No Iterations 1
DILUPBiCG:  Solving for linUy, Initial residual = 0.00315287, Final residual = 2.71332e-05, No Iterations 1
DILUPBiCG:  Solving for linUz, Initial residual = 0.00450694, Final residual = 1.12987e-05, No Iterations 1
GAMG:  Solving for linP, Initial residual = 0.0280807, Final residual = 0.000109211, No Iterations 3
GAMG:  Solving for linP, Initial residual = 0.00288069, Final residual = 2.69541e-05, No Iterations 3
GAMG:  Solving for linP, Initial residual = 0.000900108, Final residual = 3.56763e-06, No Iterations 4
Adjoint continuity errors : sum local = 2.11952e-10, global = -2.09238e-11, cumulative = 4.68951e-11
GAMG:  Solving for linP, Initial residual = 0.00129612, Final residual = 6.77001e-06, No Iterations 4
GAMG:  Solving for linP, Initial residual = 0.000402597, Final residual = 3.60665e-06, No Iterations 3
GAMG:  Solving for linP, Initial residual = 0.000139739, Final residual = 6.66582e-07, No Iterations 4
Adjoint continuity errors : sum local = 3.9577e-11, global = -3.5676e-12, cumulative = 4.33275e-11
PIMPLE: iteration 3
DILUPBiCG:  Solving for linUx, Initial residual = 0.000178453, Final residual = 1.26262e-06, No Iterations 1
DILUPBiCG:  Solving for linUy, Initial residual = 0.000318481, Final residual = 3.02619e-06, No Iterations 1
DILUPBiCG:  Solving for linUz, Initial residual = 0.000426724, Final residual = 3.19858e-06, No Iterations 1
GAMG:  Solving for linP, Initial residual = 0.0358975, Final residual = 0.000303772, No Iterations 2
GAMG:  Solving for linP, Initial residual = 0.00193965, Final residual = 7.00168e-06, No Iterations 4
GAMG:  Solving for linP, Initial residual = 0.000705813, Final residual = 6.48945e-06, No Iterations 3
Adjoint continuity errors : sum local = 4.02724e-10, global = 2.57126e-12, cumulative = 4.58988e-11
GAMG:  Solving for linP, Initial residual = 0.00120907, Final residual = 5.87678e-06, No Iterations 3
GAMG:  Solving for linP, Initial residual = 0.000189972, Final residual = 9.22537e-07, No Iterations 4
GAMG:  Solving for linP, Initial residual = 7.46939e-05, Final residual = 3.61459e-07, No Iterations 4
Adjoint continuity errors : sum local = 2.24649e-11, global = 3.9502e-13, cumulative = 4.62938e-11
ExecutionTime = 10.6 s  ClockTime = 11 s

End

