/*---------------------------------------------------------------------------*\
| =========                 |                                                 |
| \\      /  F ield         | OpenFOAM: The Open Source CFD Toolbox           |
|  \\    /   O peration     | Version:  2.3.1                                 |
|   \\  /    A nd           | Web:      www.OpenFOAM.org                      |
|    \\/     M anipulation  |                                                 |
\*---------------------------------------------------------------------------*/
Build  : 2.3.1-262087cdf8db
Exec   : pimpleDyMFoam
Date   : Jun 06 2023
Time   : 02:30:39
Host   : "jcosson-VirtualBox"
PID    : 820
Case   : /home/jcosson/workspace/henersj_shootingdata/calcs/moderate_deformed/primal/100_intervals_05-06-23/sweep64/interval68
nProcs : 1
sigFpe : Enabling floating point exception trapping (FOAM_SIGFPE).
fileModificationChecking : Monitoring run-time modified files using timeStampMaster
allowSystemOperations : Allowing user-supplied system call operations

// * * * * * * * * * * * * * * * * * * * * * * * * * * * * * * * * * * * * * //
Create time

Create mesh for time = 0.467

Selecting dynamicFvMesh dynamicMotionSolverFvMesh
Selecting motion solver: displacementLaplacian
Selecting motion diffusion: quadratic
Selecting motion diffusion: quadratic
Selecting motion diffusion: inverseDistance

PIMPLE: no residual control data found. Calculations will employ 3 corrector loops

Reading field p

Reading field U

Reading/calculating face flux field phi

Selecting incompressible transport model Newtonian
Selecting turbulence model type RASModel
Selecting RAS turbulence model kOmegaSST
kOmegaSSTCoeffs
{
    alphaK1         0.85034;
    alphaK2         1;
    alphaOmega1     0.5;
    alphaOmega2     0.85616;
    gamma1          0.5532;
    gamma2          0.4403;
    beta1           0.075;
    beta2           0.0828;
    betaStar        0.09;
    a1              0.31;
    c1              10;
    Cmu             0.09;
    b1              1;
    F3              false;
}

Reading/calculating face velocity Uf

No finite volume options present

Courant Number mean: 0.232778 max: 0.5176

Starting time loop

Courant Number mean: 0.232778 max: 0.5176
Time = 0.468

GAMG:  Solving for cellDisplacementx, Initial residual = 0, Final residual = 0, No Iterations 0
GAMG:  Solving for cellDisplacementy, Initial residual = 0, Final residual = 0, No Iterations 0
GAMG:  Solving for cellDisplacementz, Initial residual = 0, Final residual = 0, No Iterations 0
PIMPLE: iteration 1
DILUPBiCG:  Solving for Ux, Initial residual = 0.0423964, Final residual = 0.000174826, No Iterations 1
DILUPBiCG:  Solving for Uy, Initial residual = 0.00684863, Final residual = 1.62031e-05, No Iterations 1
DILUPBiCG:  Solving for Uz, Initial residual = 0.0133016, Final residual = 3.05394e-05, No Iterations 1
GAMG:  Solving for p, Initial residual = 0.134961, Final residual = 0.00109971, No Iterations 6
GAMG:  Solving for p, Initial residual = 0.015796, Final residual = 0.000156848, No Iterations 18
GAMG:  Solving for p, Initial residual = 0.00674149, Final residual = 6.20175e-05, No Iterations 12
time step continuity errors : sum local = 8.06268e-07, global = 2.42837e-07, cumulative = 2.42837e-07
GAMG:  Solving for p, Initial residual = 0.0563688, Final residual = 0.00036407, No Iterations 6
GAMG:  Solving for p, Initial residual = 0.00795371, Final residual = 7.48036e-05, No Iterations 16
GAMG:  Solving for p, Initial residual = 0.00350888, Final residual = 3.06587e-05, No Iterations 12
time step continuity errors : sum local = 3.97732e-07, global = 1.18952e-07, cumulative = 3.61789e-07
PIMPLE: iteration 2
DILUPBiCG:  Solving for Ux, Initial residual = 0.0126597, Final residual = 6.97028e-05, No Iterations 1
DILUPBiCG:  Solving for Uy, Initial residual = 0.00215536, Final residual = 5.1456e-06, No Iterations 1
DILUPBiCG:  Solving for Uz, Initial residual = 0.00375981, Final residual = 1.17589e-05, No Iterations 1
GAMG:  Solving for p, Initial residual = 0.0571709, Final residual = 0.000464134, No Iterations 4
GAMG:  Solving for p, Initial residual = 0.00931127, Final residual = 8.37547e-05, No Iterations 16
GAMG:  Solving for p, Initial residual = 0.00426619, Final residual = 3.90614e-05, No Iterations 8
time step continuity errors : sum local = 4.29701e-07, global = -1.3553e-07, cumulative = 2.26259e-07
GAMG:  Solving for p, Initial residual = 0.0292398, Final residual = 0.000199207, No Iterations 4
GAMG:  Solving for p, Initial residual = 0.00456648, Final residual = 3.81317e-05, No Iterations 14
GAMG:  Solving for p, Initial residual = 0.00199729, Final residual = 1.82347e-05, No Iterations 8
time step continuity errors : sum local = 2.01738e-07, global = -5.82918e-08, cumulative = 1.67967e-07
PIMPLE: iteration 3
DILUPBiCG:  Solving for Ux, Initial residual = 0.00323145, Final residual = 1.19641e-06, No Iterations 2
DILUPBiCG:  Solving for Uy, Initial residual = 0.00054828, Final residual = 7.05573e-06, No Iterations 1
DILUPBiCG:  Solving for Uz, Initial residual = 0.00673354, Final residual = 2.19076e-06, No Iterations 2
GAMG:  Solving for p, Initial residual = 0.0405363, Final residual = 0.000325309, No Iterations 5
GAMG:  Solving for p, Initial residual = 0.00915673, Final residual = 8.05299e-05, No Iterations 15
GAMG:  Solving for p, Initial residual = 0.00440463, Final residual = 3.61197e-05, No Iterations 10
time step continuity errors : sum local = 4.4522e-07, global = -1.15876e-07, cumulative = 5.20914e-08
GAMG:  Solving for p, Initial residual = 0.00256586, Final residual = 2.33509e-05, No Iterations 20
GAMG:  Solving for p, Initial residual = 0.00143748, Final residual = 1.28621e-05, No Iterations 4
GAMG:  Solving for p, Initial residual = 0.000562058, Final residual = 9.72843e-07, No Iterations 36
time step continuity errors : sum local = 1.19568e-08, global = 3.52302e-09, cumulative = 5.56144e-08
DILUPBiCG:  Solving for omega, Initial residual = 0.000471507, Final residual = 7.4582e-07, No Iterations 1
DILUPBiCG:  Solving for k, Initial residual = 0.00486656, Final residual = 1.59484e-06, No Iterations 2
ExecutionTime = 18.63 s  ClockTime = 18 s

End

