/*---------------------------------------------------------------------------*\
| =========                 |                                                 |
| \\      /  F ield         | OpenFOAM: The Open Source CFD Toolbox           |
|  \\    /   O peration     | Version:  2.3.1                                 |
|   \\  /    A nd           | Web:      www.OpenFOAM.org                      |
|    \\/     M anipulation  |                                                 |
\*---------------------------------------------------------------------------*/
Build  : 2.3.1-262087cdf8db
Exec   : pimpleDyMFoam
Date   : Jun 06 2023
Time   : 02:30:58
Host   : "jcosson-VirtualBox"
PID    : 842
Case   : /home/jcosson/workspace/henersj_shootingdata/calcs/moderate_deformed/primal/100_intervals_05-06-23/sweep64/interval84
nProcs : 1
sigFpe : Enabling floating point exception trapping (FOAM_SIGFPE).
fileModificationChecking : Monitoring run-time modified files using timeStampMaster
allowSystemOperations : Allowing user-supplied system call operations

// * * * * * * * * * * * * * * * * * * * * * * * * * * * * * * * * * * * * * //
Create time

Create mesh for time = 0.483

Selecting dynamicFvMesh dynamicMotionSolverFvMesh
Selecting motion solver: displacementLaplacian
Selecting motion diffusion: quadratic
Selecting motion diffusion: quadratic
Selecting motion diffusion: inverseDistance

PIMPLE: no residual control data found. Calculations will employ 3 corrector loops

Reading field p

Reading field U

Reading/calculating face flux field phi

Selecting incompressible transport model Newtonian
Selecting turbulence model type RASModel
Selecting RAS turbulence model kOmegaSST
bounding k, min: 0 max: 0.00067461 average: 0.000155171
kOmegaSSTCoeffs
{
    alphaK1         0.85034;
    alphaK2         1;
    alphaOmega1     0.5;
    alphaOmega2     0.85616;
    gamma1          0.5532;
    gamma2          0.4403;
    beta1           0.075;
    beta2           0.0828;
    betaStar        0.09;
    a1              0.31;
    c1              10;
    Cmu             0.09;
    b1              1;
    F3              false;
}

Reading/calculating face velocity Uf

No finite volume options present

Courant Number mean: 0.145342 max: 0.317493

Starting time loop

Courant Number mean: 0.145342 max: 0.317493
Time = 0.484

GAMG:  Solving for cellDisplacementx, Initial residual = 0, Final residual = 0, No Iterations 0
GAMG:  Solving for cellDisplacementy, Initial residual = 0, Final residual = 0, No Iterations 0
GAMG:  Solving for cellDisplacementz, Initial residual = 0, Final residual = 0, No Iterations 0
PIMPLE: iteration 1
DILUPBiCG:  Solving for Ux, Initial residual = 0.06437, Final residual = 0.000255182, No Iterations 1
DILUPBiCG:  Solving for Uy, Initial residual = 0.0118816, Final residual = 2.53518e-05, No Iterations 1
DILUPBiCG:  Solving for Uz, Initial residual = 0.0132429, Final residual = 1.64703e-05, No Iterations 1
GAMG:  Solving for p, Initial residual = 0.119529, Final residual = 0.00101568, No Iterations 4
GAMG:  Solving for p, Initial residual = 0.0152273, Final residual = 0.000142713, No Iterations 18
GAMG:  Solving for p, Initial residual = 0.00706813, Final residual = 6.25642e-05, No Iterations 10
time step continuity errors : sum local = 8.9117e-07, global = 2.31534e-07, cumulative = 2.31534e-07
GAMG:  Solving for p, Initial residual = 0.0525493, Final residual = 0.000403742, No Iterations 4
GAMG:  Solving for p, Initial residual = 0.0075686, Final residual = 6.92119e-05, No Iterations 16
GAMG:  Solving for p, Initial residual = 0.0035565, Final residual = 3.26665e-05, No Iterations 10
time step continuity errors : sum local = 4.67153e-07, global = 1.21833e-07, cumulative = 3.53367e-07
PIMPLE: iteration 2
DILUPBiCG:  Solving for Ux, Initial residual = 0.0173121, Final residual = 0.00010674, No Iterations 1
DILUPBiCG:  Solving for Uy, Initial residual = 0.003334, Final residual = 7.02336e-06, No Iterations 1
DILUPBiCG:  Solving for Uz, Initial residual = 0.00295583, Final residual = 1.0629e-05, No Iterations 1
GAMG:  Solving for p, Initial residual = 0.0520073, Final residual = 0.000475322, No Iterations 4
GAMG:  Solving for p, Initial residual = 0.00955982, Final residual = 8.34207e-05, No Iterations 16
GAMG:  Solving for p, Initial residual = 0.00429814, Final residual = 4.09211e-05, No Iterations 6
time step continuity errors : sum local = 5.06255e-07, global = -1.31337e-07, cumulative = 2.22029e-07
GAMG:  Solving for p, Initial residual = 0.0270928, Final residual = 0.000219046, No Iterations 4
GAMG:  Solving for p, Initial residual = 0.00494464, Final residual = 4.90467e-05, No Iterations 12
GAMG:  Solving for p, Initial residual = 0.0020199, Final residual = 1.90603e-05, No Iterations 10
time step continuity errors : sum local = 2.36763e-07, global = -5.9333e-08, cumulative = 1.62696e-07
PIMPLE: iteration 3
DILUPBiCG:  Solving for Ux, Initial residual = 0.0038808, Final residual = 3.18231e-06, No Iterations 2
DILUPBiCG:  Solving for Uy, Initial residual = 0.000772516, Final residual = 5.18666e-06, No Iterations 1
DILUPBiCG:  Solving for Uz, Initial residual = 0.00619202, Final residual = 3.02455e-06, No Iterations 2
GAMG:  Solving for p, Initial residual = 0.0426358, Final residual = 0.000338045, No Iterations 5
GAMG:  Solving for p, Initial residual = 0.00963674, Final residual = 8.47968e-05, No Iterations 14
GAMG:  Solving for p, Initial residual = 0.00475459, Final residual = 4.20206e-05, No Iterations 10
time step continuity errors : sum local = 5.84075e-07, global = -1.52186e-07, cumulative = 1.05104e-08
GAMG:  Solving for p, Initial residual = 0.00241816, Final residual = 2.01656e-05, No Iterations 12
GAMG:  Solving for p, Initial residual = 0.00128934, Final residual = 1.20637e-05, No Iterations 4
GAMG:  Solving for p, Initial residual = 0.000520345, Final residual = 9.14443e-07, No Iterations 30
time step continuity errors : sum local = 1.2594e-08, global = 3.77204e-09, cumulative = 1.42825e-08
DILUPBiCG:  Solving for omega, Initial residual = 0.00095828, Final residual = 7.28071e-07, No Iterations 1
DILUPBiCG:  Solving for k, Initial residual = 0.00375337, Final residual = 7.35357e-07, No Iterations 2
bounding k, min: 0 max: 0.000662478 average: 0.00015419
ExecutionTime = 17.33 s  ClockTime = 17 s

End

