/*---------------------------------------------------------------------------*\
| =========                 |                                                 |
| \\      /  F ield         | OpenFOAM: The Open Source CFD Toolbox           |
|  \\    /   O peration     | Version:  2.3.1                                 |
|   \\  /    A nd           | Web:      www.OpenFOAM.org                      |
|    \\/     M anipulation  |                                                 |
\*---------------------------------------------------------------------------*/
Build  : 2.3.1-262087cdf8db
Exec   : pimpleDyMFoam
Date   : Jun 04 2023
Time   : 16:58:57
Host   : "jcosson-VirtualBox"
PID    : 4806
Case   : /home/jcosson/workspace/henersj_shootingdata/calcs/moderate_deformed/primal/10_intervals_04-06-23/sweep7/interval10
nProcs : 1
sigFpe : Enabling floating point exception trapping (FOAM_SIGFPE).
fileModificationChecking : Monitoring run-time modified files using timeStampMaster
allowSystemOperations : Allowing user-supplied system call operations

// * * * * * * * * * * * * * * * * * * * * * * * * * * * * * * * * * * * * * //
Create time

Create mesh for time = 0.49

Selecting dynamicFvMesh dynamicMotionSolverFvMesh
Selecting motion solver: displacementLaplacian
Selecting motion diffusion: quadratic
Selecting motion diffusion: quadratic
Selecting motion diffusion: inverseDistance

PIMPLE: no residual control data found. Calculations will employ 3 corrector loops

Reading field p

Reading field U

Reading/calculating face flux field phi

Selecting incompressible transport model Newtonian
Selecting turbulence model type RASModel
Selecting RAS turbulence model kOmegaSST
bounding k, min: 0 max: 0.000601375 average: 0.000149875
kOmegaSSTCoeffs
{
    alphaK1         0.85034;
    alphaK2         1;
    alphaOmega1     0.5;
    alphaOmega2     0.85616;
    gamma1          0.5532;
    gamma2          0.4403;
    beta1           0.075;
    beta2           0.0828;
    betaStar        0.09;
    a1              0.31;
    c1              10;
    Cmu             0.09;
    b1              1;
    F3              false;
}

Reading/calculating face velocity Uf

No finite volume options present

Courant Number mean: 0.115873 max: 0.254378

Starting time loop

Courant Number mean: 0.115873 max: 0.254378
Time = 0.491

GAMG:  Solving for cellDisplacementx, Initial residual = 0, Final residual = 0, No Iterations 0
GAMG:  Solving for cellDisplacementy, Initial residual = 0, Final residual = 0, No Iterations 0
GAMG:  Solving for cellDisplacementz, Initial residual = 0, Final residual = 0, No Iterations 0
PIMPLE: iteration 1
DILUPBiCG:  Solving for Ux, Initial residual = 0.0517947, Final residual = 0.000198319, No Iterations 1
DILUPBiCG:  Solving for Uy, Initial residual = 0.010514, Final residual = 2.12869e-05, No Iterations 1
DILUPBiCG:  Solving for Uz, Initial residual = 0.012695, Final residual = 1.11153e-05, No Iterations 1
GAMG:  Solving for p, Initial residual = 0.112867, Final residual = 0.00068902, No Iterations 4
GAMG:  Solving for p, Initial residual = 0.0156796, Final residual = 0.000142695, No Iterations 16
GAMG:  Solving for p, Initial residual = 0.00748114, Final residual = 7.19471e-05, No Iterations 4
time step continuity errors : sum local = 7.33536e-07, global = 2.63289e-07, cumulative = 2.63289e-07
GAMG:  Solving for p, Initial residual = 0.0513934, Final residual = 0.000289859, No Iterations 4
GAMG:  Solving for p, Initial residual = 0.00768423, Final residual = 7.31401e-05, No Iterations 14
GAMG:  Solving for p, Initial residual = 0.00375726, Final residual = 3.3048e-05, No Iterations 4
time step continuity errors : sum local = 3.39155e-07, global = 1.01884e-07, cumulative = 3.65173e-07
PIMPLE: iteration 2
DILUPBiCG:  Solving for Ux, Initial residual = 0.0132041, Final residual = 7.91126e-05, No Iterations 1
DILUPBiCG:  Solving for Uy, Initial residual = 0.0027645, Final residual = 5.53408e-06, No Iterations 1
DILUPBiCG:  Solving for Uz, Initial residual = 0.00266601, Final residual = 7.77099e-06, No Iterations 1
GAMG:  Solving for p, Initial residual = 0.050109, Final residual = 0.000312018, No Iterations 6
GAMG:  Solving for p, Initial residual = 0.0108911, Final residual = 9.38152e-05, No Iterations 14
GAMG:  Solving for p, Initial residual = 0.00418964, Final residual = 4.08668e-05, No Iterations 4
time step continuity errors : sum local = 3.65935e-07, global = -1.40639e-07, cumulative = 2.24534e-07
GAMG:  Solving for p, Initial residual = 0.0263661, Final residual = 0.000245974, No Iterations 4
GAMG:  Solving for p, Initial residual = 0.00559907, Final residual = 4.66433e-05, No Iterations 14
GAMG:  Solving for p, Initial residual = 0.00220781, Final residual = 1.9847e-05, No Iterations 4
time step continuity errors : sum local = 1.78199e-07, global = -6.7176e-08, cumulative = 1.57358e-07
PIMPLE: iteration 3
DILUPBiCG:  Solving for Ux, Initial residual = 0.00271368, Final residual = 2.80669e-06, No Iterations 2
DILUPBiCG:  Solving for Uy, Initial residual = 0.000614787, Final residual = 5.0202e-06, No Iterations 1
DILUPBiCG:  Solving for Uz, Initial residual = 0.00431388, Final residual = 1.97219e-06, No Iterations 2
GAMG:  Solving for p, Initial residual = 0.0471888, Final residual = 0.000339243, No Iterations 5
GAMG:  Solving for p, Initial residual = 0.0106986, Final residual = 0.000100078, No Iterations 14
GAMG:  Solving for p, Initial residual = 0.00558897, Final residual = 5.21656e-05, No Iterations 10
time step continuity errors : sum local = 5.21838e-07, global = -1.38594e-07, cumulative = 1.87634e-08
GAMG:  Solving for p, Initial residual = 0.00264179, Final residual = 2.50749e-05, No Iterations 7
GAMG:  Solving for p, Initial residual = 0.00140007, Final residual = 1.3521e-05, No Iterations 5
GAMG:  Solving for p, Initial residual = 0.000577049, Final residual = 9.48581e-07, No Iterations 27
time step continuity errors : sum local = 9.36775e-09, global = 2.82004e-09, cumulative = 2.15835e-08
DILUPBiCG:  Solving for omega, Initial residual = 0.00120128, Final residual = 7.09548e-07, No Iterations 1
DILUPBiCG:  Solving for k, Initial residual = 0.00337661, Final residual = 6.29586e-07, No Iterations 2
bounding k, min: 0 max: 0.000586154 average: 0.000149065
ExecutionTime = 5.5 s  ClockTime = 6 s

Courant Number mean: 0.112684 max: 0.2476
Time = 0.492

GAMG:  Solving for cellDisplacementx, Initial residual = 0, Final residual = 0, No Iterations 0
GAMG:  Solving for cellDisplacementy, Initial residual = 0, Final residual = 0, No Iterations 0
GAMG:  Solving for cellDisplacementz, Initial residual = 0, Final residual = 0, No Iterations 0
PIMPLE: iteration 1
DILUPBiCG:  Solving for Ux, Initial residual = 0.0482274, Final residual = 0.000185335, No Iterations 1
DILUPBiCG:  Solving for Uy, Initial residual = 0.00993569, Final residual = 2.00023e-05, No Iterations 1
DILUPBiCG:  Solving for Uz, Initial residual = 0.011619, Final residual = 1.07832e-05, No Iterations 1
GAMG:  Solving for p, Initial residual = 0.104741, Final residual = 0.000592783, No Iterations 4
GAMG:  Solving for p, Initial residual = 0.0133667, Final residual = 0.000119845, No Iterations 18
GAMG:  Solving for p, Initial residual = 0.00680764, Final residual = 6.79534e-05, No Iterations 4
time step continuity errors : sum local = 6.43262e-07, global = 1.51387e-07, cumulative = 1.72971e-07
GAMG:  Solving for p, Initial residual = 0.0479105, Final residual = 0.000251095, No Iterations 4
GAMG:  Solving for p, Initial residual = 0.00649886, Final residual = 6.19431e-05, No Iterations 16
GAMG:  Solving for p, Initial residual = 0.00342701, Final residual = 2.78175e-05, No Iterations 5
time step continuity errors : sum local = 2.64879e-07, global = -9.04541e-08, cumulative = 8.25167e-08
PIMPLE: iteration 2
DILUPBiCG:  Solving for Ux, Initial residual = 0.0122256, Final residual = 7.33895e-05, No Iterations 1
DILUPBiCG:  Solving for Uy, Initial residual = 0.00258367, Final residual = 5.15845e-06, No Iterations 1
DILUPBiCG:  Solving for Uz, Initial residual = 0.00257527, Final residual = 1.36995e-05, No Iterations 1
GAMG:  Solving for p, Initial residual = 0.045838, Final residual = 0.00031045, No Iterations 6
GAMG:  Solving for p, Initial residual = 0.0107529, Final residual = 9.44735e-05, No Iterations 14
GAMG:  Solving for p, Initial residual = 0.00433302, Final residual = 3.68979e-05, No Iterations 4
time step continuity errors : sum local = 3.0548e-07, global = -1.13967e-07, cumulative = -3.14507e-08
GAMG:  Solving for p, Initial residual = 0.0245533, Final residual = 0.000220612, No Iterations 5
GAMG:  Solving for p, Initial residual = 0.00614833, Final residual = 6.10301e-05, No Iterations 5
GAMG:  Solving for p, Initial residual = 0.00211487, Final residual = 2.0006e-05, No Iterations 10
time step continuity errors : sum local = 1.65895e-07, global = -4.17134e-08, cumulative = -7.3164e-08
PIMPLE: iteration 3
DILUPBiCG:  Solving for Ux, Initial residual = 0.00245616, Final residual = 2.90387e-06, No Iterations 2
DILUPBiCG:  Solving for Uy, Initial residual = 0.000553844, Final residual = 5.41038e-06, No Iterations 1
DILUPBiCG:  Solving for Uz, Initial residual = 0.00399512, Final residual = 2.03613e-06, No Iterations 2
GAMG:  Solving for p, Initial residual = 0.0470044, Final residual = 0.000358948, No Iterations 5
GAMG:  Solving for p, Initial residual = 0.0107934, Final residual = 0.000103263, No Iterations 14
GAMG:  Solving for p, Initial residual = 0.00568192, Final residual = 5.38872e-05, No Iterations 10
time step continuity errors : sum local = 4.98937e-07, global = -1.33106e-07, cumulative = -2.0627e-07
GAMG:  Solving for p, Initial residual = 0.00261394, Final residual = 2.4541e-05, No Iterations 7
GAMG:  Solving for p, Initial residual = 0.00132549, Final residual = 1.04093e-05, No Iterations 6
GAMG:  Solving for p, Initial residual = 0.000513507, Final residual = 9.04275e-07, No Iterations 28
time step continuity errors : sum local = 8.26492e-09, global = 2.51776e-09, cumulative = -2.03752e-07
DILUPBiCG:  Solving for omega, Initial residual = 0.00122474, Final residual = 7.02038e-07, No Iterations 1
DILUPBiCG:  Solving for k, Initial residual = 0.00332692, Final residual = 6.20811e-07, No Iterations 2
bounding k, min: 0 max: 0.000570377 average: 0.000148282
ExecutionTime = 9.56 s  ClockTime = 10 s

Courant Number mean: 0.109793 max: 0.241453
Time = 0.493

GAMG:  Solving for cellDisplacementx, Initial residual = 0, Final residual = 0, No Iterations 0
GAMG:  Solving for cellDisplacementy, Initial residual = 0, Final residual = 0, No Iterations 0
GAMG:  Solving for cellDisplacementz, Initial residual = 0, Final residual = 0, No Iterations 0
PIMPLE: iteration 1
DILUPBiCG:  Solving for Ux, Initial residual = 0.0445097, Final residual = 0.000170816, No Iterations 1
DILUPBiCG:  Solving for Uy, Initial residual = 0.0092484, Final residual = 1.85649e-05, No Iterations 1
DILUPBiCG:  Solving for Uz, Initial residual = 0.0110206, Final residual = 1.04994e-05, No Iterations 1
GAMG:  Solving for p, Initial residual = 0.101665, Final residual = 0.000551603, No Iterations 4
GAMG:  Solving for p, Initial residual = 0.0131967, Final residual = 0.000128249, No Iterations 16
GAMG:  Solving for p, Initial residual = 0.00687204, Final residual = 5.40519e-05, No Iterations 5
time step continuity errors : sum local = 4.65991e-07, global = -1.61998e-07, cumulative = -3.6575e-07
GAMG:  Solving for p, Initial residual = 0.0470249, Final residual = 0.000230777, No Iterations 4
GAMG:  Solving for p, Initial residual = 0.0064223, Final residual = 5.78869e-05, No Iterations 16
GAMG:  Solving for p, Initial residual = 0.00346091, Final residual = 3.36139e-05, No Iterations 4
time step continuity errors : sum local = 2.91965e-07, global = 1.02171e-07, cumulative = -2.63579e-07
PIMPLE: iteration 2
DILUPBiCG:  Solving for Ux, Initial residual = 0.0111389, Final residual = 6.72019e-05, No Iterations 1
DILUPBiCG:  Solving for Uy, Initial residual = 0.00237849, Final residual = 4.73505e-06, No Iterations 1
DILUPBiCG:  Solving for Uz, Initial residual = 0.00265785, Final residual = 4.70989e-05, No Iterations 1
GAMG:  Solving for p, Initial residual = 0.0446442, Final residual = 0.000322295, No Iterations 6
GAMG:  Solving for p, Initial residual = 0.0106459, Final residual = 9.54129e-05, No Iterations 14
GAMG:  Solving for p, Initial residual = 0.00382583, Final residual = 3.58498e-05, No Iterations 10
time step continuity errors : sum local = 2.71757e-07, global = -6.946e-08, cumulative = -3.33039e-07
GAMG:  Solving for p, Initial residual = 0.0236737, Final residual = 0.000144867, No Iterations 6
GAMG:  Solving for p, Initial residual = 0.00552361, Final residual = 4.99991e-05, No Iterations 12
GAMG:  Solving for p, Initial residual = 0.00182725, Final residual = 1.57099e-05, No Iterations 12
time step continuity errors : sum local = 1.19362e-07, global = -3.51338e-08, cumulative = -3.68173e-07
PIMPLE: iteration 3
DILUPBiCG:  Solving for Ux, Initial residual = 0.0021768, Final residual = 3.45628e-06, No Iterations 2
DILUPBiCG:  Solving for Uy, Initial residual = 0.000506804, Final residual = 5.83995e-06, No Iterations 1
DILUPBiCG:  Solving for Uz, Initial residual = 0.00372306, Final residual = 2.47444e-06, No Iterations 2
GAMG:  Solving for p, Initial residual = 0.0491409, Final residual = 0.000351655, No Iterations 5
GAMG:  Solving for p, Initial residual = 0.0110057, Final residual = 0.000105397, No Iterations 14
GAMG:  Solving for p, Initial residual = 0.00592536, Final residual = 5.58428e-05, No Iterations 10
time step continuity errors : sum local = 4.7148e-07, global = -1.27094e-07, cumulative = -4.95267e-07
GAMG:  Solving for p, Initial residual = 0.00271176, Final residual = 2.11674e-05, No Iterations 8
GAMG:  Solving for p, Initial residual = 0.00141991, Final residual = 1.34349e-05, No Iterations 4
GAMG:  Solving for p, Initial residual = 0.000585423, Final residual = 9.63308e-07, No Iterations 23
time step continuity errors : sum local = 8.0225e-09, global = 2.5621e-09, cumulative = -4.92704e-07
DILUPBiCG:  Solving for omega, Initial residual = 0.00124521, Final residual = 6.9448e-07, No Iterations 1
DILUPBiCG:  Solving for k, Initial residual = 0.00328057, Final residual = 6.19382e-07, No Iterations 2
bounding k, min: 0 max: 0.000554245 average: 0.000147524
ExecutionTime = 13.1 s  ClockTime = 14 s

Courant Number mean: 0.107218 max: 0.235957
Time = 0.494

GAMG:  Solving for cellDisplacementx, Initial residual = 0, Final residual = 0, No Iterations 0
GAMG:  Solving for cellDisplacementy, Initial residual = 0, Final residual = 0, No Iterations 0
GAMG:  Solving for cellDisplacementz, Initial residual = 0, Final residual = 0, No Iterations 0
PIMPLE: iteration 1
DILUPBiCG:  Solving for Ux, Initial residual = 0.0402141, Final residual = 0.000155021, No Iterations 1
DILUPBiCG:  Solving for Uy, Initial residual = 0.00847369, Final residual = 1.69408e-05, No Iterations 1
DILUPBiCG:  Solving for Uz, Initial residual = 0.0104351, Final residual = 1.09912e-05, No Iterations 1
GAMG:  Solving for p, Initial residual = 0.101049, Final residual = 0.000455161, No Iterations 4
GAMG:  Solving for p, Initial residual = 0.0127547, Final residual = 0.000123179, No Iterations 16
GAMG:  Solving for p, Initial residual = 0.00671072, Final residual = 5.83463e-05, No Iterations 4
time step continuity errors : sum local = 4.544e-07, global = 1.71473e-07, cumulative = -3.21232e-07
GAMG:  Solving for p, Initial residual = 0.0471416, Final residual = 0.000200191, No Iterations 4
GAMG:  Solving for p, Initial residual = 0.00611217, Final residual = 5.68981e-05, No Iterations 16
GAMG:  Solving for p, Initial residual = 0.00339691, Final residual = 3.33579e-05, No Iterations 4
time step continuity errors : sum local = 2.61638e-07, global = 1.00904e-07, cumulative = -2.20328e-07
PIMPLE: iteration 2
DILUPBiCG:  Solving for Ux, Initial residual = 0.00996446, Final residual = 6.04058e-05, No Iterations 1
DILUPBiCG:  Solving for Uy, Initial residual = 0.0021474, Final residual = 4.27274e-06, No Iterations 1
DILUPBiCG:  Solving for Uz, Initial residual = 0.00263978, Final residual = 3.26241e-05, No Iterations 1
GAMG:  Solving for p, Initial residual = 0.0446281, Final residual = 0.000320546, No Iterations 6
GAMG:  Solving for p, Initial residual = 0.0120644, Final residual = 0.000117005, No Iterations 12
GAMG:  Solving for p, Initial residual = 0.00427067, Final residual = 4.09507e-05, No Iterations 12
time step continuity errors : sum local = 2.79839e-07, global = -8.21073e-08, cumulative = -3.02435e-07
GAMG:  Solving for p, Initial residual = 0.0239063, Final residual = 0.000229558, No Iterations 5
GAMG:  Solving for p, Initial residual = 0.00675015, Final residual = 6.53279e-05, No Iterations 7
GAMG:  Solving for p, Initial residual = 0.00205416, Final residual = 1.95774e-05, No Iterations 14
time step continuity errors : sum local = 1.33887e-07, global = -4.08638e-08, cumulative = -3.43299e-07
PIMPLE: iteration 3
DILUPBiCG:  Solving for Ux, Initial residual = 0.00189304, Final residual = 5.57649e-06, No Iterations 2
DILUPBiCG:  Solving for Uy, Initial residual = 0.000439283, Final residual = 6.9158e-06, No Iterations 1
DILUPBiCG:  Solving for Uz, Initial residual = 0.00320965, Final residual = 6.90808e-06, No Iterations 2
GAMG:  Solving for p, Initial residual = 0.0501507, Final residual = 0.000374212, No Iterations 5
GAMG:  Solving for p, Initial residual = 0.0113693, Final residual = 0.000110068, No Iterations 14
GAMG:  Solving for p, Initial residual = 0.00617438, Final residual = 5.77513e-05, No Iterations 10
time step continuity errors : sum local = 4.38839e-07, global = -1.18653e-07, cumulative = -4.61952e-07
GAMG:  Solving for p, Initial residual = 0.0027271, Final residual = 2.19742e-05, No Iterations 8
GAMG:  Solving for p, Initial residual = 0.00138019, Final residual = 1.3012e-05, No Iterations 4
GAMG:  Solving for p, Initial residual = 0.000525495, Final residual = 9.84788e-07, No Iterations 21
time step continuity errors : sum local = 7.38028e-09, global = 2.30174e-09, cumulative = -4.5965e-07
DILUPBiCG:  Solving for omega, Initial residual = 0.00126189, Final residual = 6.87385e-07, No Iterations 1
DILUPBiCG:  Solving for k, Initial residual = 0.00323662, Final residual = 6.25898e-07, No Iterations 2
bounding k, min: 0 max: 0.000537939 average: 0.000146792
ExecutionTime = 16.53 s  ClockTime = 17 s

Courant Number mean: 0.104963 max: 0.231136
Time = 0.495

GAMG:  Solving for cellDisplacementx, Initial residual = 0, Final residual = 0, No Iterations 0
GAMG:  Solving for cellDisplacementy, Initial residual = 0, Final residual = 0, No Iterations 0
GAMG:  Solving for cellDisplacementz, Initial residual = 0, Final residual = 0, No Iterations 0
PIMPLE: iteration 1
DILUPBiCG:  Solving for Ux, Initial residual = 0.0357096, Final residual = 0.000137747, No Iterations 1
DILUPBiCG:  Solving for Uy, Initial residual = 0.00758612, Final residual = 1.51296e-05, No Iterations 1
DILUPBiCG:  Solving for Uz, Initial residual = 0.00944671, Final residual = 1.08122e-05, No Iterations 1
GAMG:  Solving for p, Initial residual = 0.0971321, Final residual = 0.000419295, No Iterations 4
GAMG:  Solving for p, Initial residual = 0.0125308, Final residual = 0.000121378, No Iterations 14
GAMG:  Solving for p, Initial residual = 0.00680963, Final residual = 5.89653e-05, No Iterations 4
time step continuity errors : sum local = 4.05352e-07, global = 1.41942e-07, cumulative = -3.17708e-07
GAMG:  Solving for p, Initial residual = 0.0458381, Final residual = 0.000189777, No Iterations 4
GAMG:  Solving for p, Initial residual = 0.00606755, Final residual = 5.78979e-05, No Iterations 14
GAMG:  Solving for p, Initial residual = 0.00338855, Final residual = 2.7629e-05, No Iterations 4
time step continuity errors : sum local = 1.91512e-07, global = 6.45752e-08, cumulative = -2.53133e-07
PIMPLE: iteration 2
DILUPBiCG:  Solving for Ux, Initial residual = 0.00870142, Final residual = 5.31411e-05, No Iterations 1
DILUPBiCG:  Solving for Uy, Initial residual = 0.00189092, Final residual = 3.75897e-06, No Iterations 1
DILUPBiCG:  Solving for Uz, Initial residual = 0.00277098, Final residual = 4.50789e-05, No Iterations 1
GAMG:  Solving for p, Initial residual = 0.042934, Final residual = 0.000335212, No Iterations 6
GAMG:  Solving for p, Initial residual = 0.0123016, Final residual = 0.000115349, No Iterations 12
GAMG:  Solving for p, Initial residual = 0.00396412, Final residual = 3.56343e-05, No Iterations 14
time step continuity errors : sum local = 2.15839e-07, global = -6.69051e-08, cumulative = -3.20038e-07
GAMG:  Solving for p, Initial residual = 0.022957, Final residual = 0.000151901, No Iterations 6
GAMG:  Solving for p, Initial residual = 0.00648494, Final residual = 6.09777e-05, No Iterations 10
GAMG:  Solving for p, Initial residual = 0.00186243, Final residual = 1.60221e-05, No Iterations 16
time step continuity errors : sum local = 9.71714e-08, global = -2.93363e-08, cumulative = -3.49374e-07
PIMPLE: iteration 3
DILUPBiCG:  Solving for Ux, Initial residual = 0.00158092, Final residual = 7.86868e-08, No Iterations 3
DILUPBiCG:  Solving for Uy, Initial residual = 0.000379061, Final residual = 9.52991e-06, No Iterations 1
DILUPBiCG:  Solving for Uz, Initial residual = 0.00300369, Final residual = 1.23698e-07, No Iterations 3
GAMG:  Solving for p, Initial residual = 0.0531804, Final residual = 0.000374787, No Iterations 5
GAMG:  Solving for p, Initial residual = 0.0115963, Final residual = 0.000113238, No Iterations 14
GAMG:  Solving for p, Initial residual = 0.00647442, Final residual = 6.02556e-05, No Iterations 10
time step continuity errors : sum local = 4.04043e-07, global = -1.11316e-07, cumulative = -4.6069e-07
GAMG:  Solving for p, Initial residual = 0.00282142, Final residual = 2.30897e-05, No Iterations 8
GAMG:  Solving for p, Initial residual = 0.00147357, Final residual = 1.42715e-05, No Iterations 4
GAMG:  Solving for p, Initial residual = 0.00059343, Final residual = 9.94672e-07, No Iterations 25
time step continuity errors : sum local = 6.57362e-09, global = 2.10874e-09, cumulative = -4.58582e-07
DILUPBiCG:  Solving for omega, Initial residual = 0.00127512, Final residual = 6.80837e-07, No Iterations 1
DILUPBiCG:  Solving for k, Initial residual = 0.00319586, Final residual = 6.40383e-07, No Iterations 2
bounding k, min: 0 max: 0.000524178 average: 0.000146085
ExecutionTime = 20.16 s  ClockTime = 21 s

Courant Number mean: 0.10304 max: 0.227006
Time = 0.496

GAMG:  Solving for cellDisplacementx, Initial residual = 0, Final residual = 0, No Iterations 0
GAMG:  Solving for cellDisplacementy, Initial residual = 0, Final residual = 0, No Iterations 0
GAMG:  Solving for cellDisplacementz, Initial residual = 0, Final residual = 0, No Iterations 0
PIMPLE: iteration 1
DILUPBiCG:  Solving for Ux, Initial residual = 0.0308075, Final residual = 0.000119358, No Iterations 1
DILUPBiCG:  Solving for Uy, Initial residual = 0.00661696, Final residual = 1.31437e-05, No Iterations 1
DILUPBiCG:  Solving for Uz, Initial residual = 0.00907713, Final residual = 1.20474e-05, No Iterations 1
GAMG:  Solving for p, Initial residual = 0.095582, Final residual = 0.000447604, No Iterations 4
GAMG:  Solving for p, Initial residual = 0.0117476, Final residual = 0.000109162, No Iterations 10
GAMG:  Solving for p, Initial residual = 0.00579262, Final residual = 4.56016e-05, No Iterations 4
time step continuity errors : sum local = 2.71936e-07, global = 9.2805e-08, cumulative = -3.65777e-07
GAMG:  Solving for p, Initial residual = 0.0457861, Final residual = 0.000208766, No Iterations 4
GAMG:  Solving for p, Initial residual = 0.00563772, Final residual = 4.72977e-05, No Iterations 12
GAMG:  Solving for p, Initial residual = 0.00293935, Final residual = 2.64701e-05, No Iterations 4
time step continuity errors : sum local = 1.58843e-07, global = 6.08784e-08, cumulative = -3.04898e-07
PIMPLE: iteration 2
DILUPBiCG:  Solving for Ux, Initial residual = 0.00737152, Final residual = 4.54189e-05, No Iterations 1
DILUPBiCG:  Solving for Uy, Initial residual = 0.0016172, Final residual = 3.23081e-06, No Iterations 1
DILUPBiCG:  Solving for Uz, Initial residual = 0.00278565, Final residual = 3.93278e-05, No Iterations 1
GAMG:  Solving for p, Initial residual = 0.0426633, Final residual = 0.000339596, No Iterations 6
GAMG:  Solving for p, Initial residual = 0.0148149, Final residual = 0.000136377, No Iterations 10
GAMG:  Solving for p, Initial residual = 0.00419375, Final residual = 3.86541e-05, No Iterations 16
time step continuity errors : sum local = 2.02308e-07, global = -5.86581e-08, cumulative = -3.63556e-07
GAMG:  Solving for p, Initial residual = 0.0227118, Final residual = 0.000154264, No Iterations 6
GAMG:  Solving for p, Initial residual = 0.00786459, Final residual = 7.43226e-05, No Iterations 7
GAMG:  Solving for p, Initial residual = 0.00195785, Final residual = 1.80649e-05, No Iterations 17
time step continuity errors : sum local = 9.44366e-08, global = -2.63527e-08, cumulative = -3.89909e-07
PIMPLE: iteration 3
DILUPBiCG:  Solving for Ux, Initial residual = 0.00125171, Final residual = 2.05323e-06, No Iterations 2
DILUPBiCG:  Solving for Uy, Initial residual = 0.000299743, Final residual = 7.72184e-08, No Iterations 2
DILUPBiCG:  Solving for Uz, Initial residual = 0.00241966, Final residual = 2.02961e-06, No Iterations 2
GAMG:  Solving for p, Initial residual = 0.0559067, Final residual = 0.000400724, No Iterations 5
GAMG:  Solving for p, Initial residual = 0.0121101, Final residual = 0.000103909, No Iterations 16
GAMG:  Solving for p, Initial residual = 0.00711813, Final residual = 6.67326e-05, No Iterations 8
time step continuity errors : sum local = 3.84271e-07, global = -8.72551e-08, cumulative = -4.77164e-07
GAMG:  Solving for p, Initial residual = 0.00284043, Final residual = 2.2092e-05, No Iterations 8
GAMG:  Solving for p, Initial residual = 0.00149248, Final residual = 1.42046e-05, No Iterations 4
GAMG:  Solving for p, Initial residual = 0.000543515, Final residual = 9.5032e-07, No Iterations 27
time step continuity errors : sum local = 5.39569e-09, global = 1.6744e-09, cumulative = -4.7549e-07
DILUPBiCG:  Solving for omega, Initial residual = 0.00128462, Final residual = 6.7511e-07, No Iterations 1
DILUPBiCG:  Solving for k, Initial residual = 0.00315696, Final residual = 6.63463e-07, No Iterations 2
bounding k, min: 0 max: 0.0005177 average: 0.000145402
ExecutionTime = 23.8 s  ClockTime = 24 s

Courant Number mean: 0.101454 max: 0.223583
Time = 0.497

GAMG:  Solving for cellDisplacementx, Initial residual = 0, Final residual = 0, No Iterations 0
GAMG:  Solving for cellDisplacementy, Initial residual = 0, Final residual = 0, No Iterations 0
GAMG:  Solving for cellDisplacementz, Initial residual = 0, Final residual = 0, No Iterations 0
PIMPLE: iteration 1
DILUPBiCG:  Solving for Ux, Initial residual = 0.0256493, Final residual = 9.9703e-05, No Iterations 1
DILUPBiCG:  Solving for Uy, Initial residual = 0.00555687, Final residual = 1.10177e-05, No Iterations 1
DILUPBiCG:  Solving for Uz, Initial residual = 0.00797003, Final residual = 1.26072e-05, No Iterations 1
GAMG:  Solving for p, Initial residual = 0.0908115, Final residual = 0.000679035, No Iterations 3
GAMG:  Solving for p, Initial residual = 0.0119254, Final residual = 7.68454e-05, No Iterations 5
GAMG:  Solving for p, Initial residual = 0.00586796, Final residual = 4.79118e-05, No Iterations 4
time step continuity errors : sum local = 2.38038e-07, global = 7.44624e-08, cumulative = -4.01027e-07
GAMG:  Solving for p, Initial residual = 0.0442785, Final residual = 0.000304958, No Iterations 3
GAMG:  Solving for p, Initial residual = 0.0057803, Final residual = 5.18459e-05, No Iterations 5
GAMG:  Solving for p, Initial residual = 0.00295122, Final residual = 2.93154e-05, No Iterations 4
time step continuity errors : sum local = 1.46657e-07, global = 5.39714e-08, cumulative = -3.47056e-07
PIMPLE: iteration 2
DILUPBiCG:  Solving for Ux, Initial residual = 0.00595233, Final residual = 3.72917e-05, No Iterations 1
DILUPBiCG:  Solving for Uy, Initial residual = 0.00131543, Final residual = 2.66175e-06, No Iterations 1
DILUPBiCG:  Solving for Uz, Initial residual = 0.00291462, Final residual = 7.63899e-05, No Iterations 1
GAMG:  Solving for p, Initial residual = 0.0406846, Final residual = 0.000360757, No Iterations 6
GAMG:  Solving for p, Initial residual = 0.0164771, Final residual = 0.000137955, No Iterations 10
GAMG:  Solving for p, Initial residual = 0.00418239, Final residual = 4.01e-05, No Iterations 16
time step continuity errors : sum local = 1.75419e-07, global = -5.12181e-08, cumulative = -3.98274e-07
GAMG:  Solving for p, Initial residual = 0.0217272, Final residual = 0.000165668, No Iterations 6
GAMG:  Solving for p, Initial residual = 0.00854725, Final residual = 7.41052e-05, No Iterations 8
GAMG:  Solving for p, Initial residual = 0.00192247, Final residual = 1.7614e-05, No Iterations 18
time step continuity errors : sum local = 7.70444e-08, global = -2.18659e-08, cumulative = -4.2014e-07
PIMPLE: iteration 3
DILUPBiCG:  Solving for Ux, Initial residual = 0.000923027, Final residual = 8.80839e-07, No Iterations 2
DILUPBiCG:  Solving for Uy, Initial residual = 0.000231628, Final residual = 7.93875e-06, No Iterations 1
DILUPBiCG:  Solving for Uz, Initial residual = 0.00224393, Final residual = 1.46284e-06, No Iterations 2
GAMG:  Solving for p, Initial residual = 0.0615062, Final residual = 0.000409465, No Iterations 5
GAMG:  Solving for p, Initial residual = 0.0123292, Final residual = 0.000110144, No Iterations 16
GAMG:  Solving for p, Initial residual = 0.00770071, Final residual = 7.01358e-05, No Iterations 8
time step continuity errors : sum local = 3.35343e-07, global = -7.83476e-08, cumulative = -4.98487e-07
GAMG:  Solving for p, Initial residual = 0.0028849, Final residual = 2.84111e-05, No Iterations 7
GAMG:  Solving for p, Initial residual = 0.00155212, Final residual = 1.43444e-05, No Iterations 5
GAMG:  Solving for p, Initial residual = 0.000596116, Final residual = 9.79046e-07, No Iterations 29
time step continuity errors : sum local = 4.61661e-09, global = 1.39404e-09, cumulative = -4.97093e-07
DILUPBiCG:  Solving for omega, Initial residual = 0.00129068, Final residual = 6.70278e-07, No Iterations 1
DILUPBiCG:  Solving for k, Initial residual = 0.00311977, Final residual = 6.93572e-07, No Iterations 2
bounding k, min: 0 max: 0.000511668 average: 0.000144743
ExecutionTime = 27.55 s  ClockTime = 28 s

Courant Number mean: 0.100213 max: 0.220878
Time = 0.498

GAMG:  Solving for cellDisplacementx, Initial residual = 0, Final residual = 0, No Iterations 0
GAMG:  Solving for cellDisplacementy, Initial residual = 0, Final residual = 0, No Iterations 0
GAMG:  Solving for cellDisplacementz, Initial residual = 0, Final residual = 0, No Iterations 0
PIMPLE: iteration 1
DILUPBiCG:  Solving for Ux, Initial residual = 0.0202891, Final residual = 7.91582e-05, No Iterations 1
DILUPBiCG:  Solving for Uy, Initial residual = 0.00444037, Final residual = 8.7744e-06, No Iterations 1
DILUPBiCG:  Solving for Uz, Initial residual = 0.00859027, Final residual = 1.51773e-05, No Iterations 1
GAMG:  Solving for p, Initial residual = 0.0876319, Final residual = 0.000357533, No Iterations 4
GAMG:  Solving for p, Initial residual = 0.0121546, Final residual = 0.000101977, No Iterations 10
GAMG:  Solving for p, Initial residual = 0.00547006, Final residual = 5.10561e-05, No Iterations 6
time step continuity errors : sum local = 2.04267e-07, global = -5.6794e-08, cumulative = -5.53887e-07
GAMG:  Solving for p, Initial residual = 0.0433199, Final residual = 0.000181051, No Iterations 4
GAMG:  Solving for p, Initial residual = 0.00624767, Final residual = 5.37433e-05, No Iterations 10
GAMG:  Solving for p, Initial residual = 0.00268785, Final residual = 2.56328e-05, No Iterations 8
time step continuity errors : sum local = 1.02501e-07, global = -2.36143e-08, cumulative = -5.77502e-07
PIMPLE: iteration 2
DILUPBiCG:  Solving for Ux, Initial residual = 0.00451621, Final residual = 2.91654e-05, No Iterations 1
DILUPBiCG:  Solving for Uy, Initial residual = 0.00101306, Final residual = 2.1467e-06, No Iterations 1
DILUPBiCG:  Solving for Uz, Initial residual = 0.00296457, Final residual = 0.000107205, No Iterations 1
GAMG:  Solving for p, Initial residual = 0.0396548, Final residual = 0.000390951, No Iterations 6
GAMG:  Solving for p, Initial residual = 0.0213383, Final residual = 0.000196099, No Iterations 7
GAMG:  Solving for p, Initial residual = 0.00448793, Final residual = 4.34839e-05, No Iterations 19
time step continuity errors : sum local = 1.51168e-07, global = -4.24529e-08, cumulative = -6.19954e-07
GAMG:  Solving for p, Initial residual = 0.0210389, Final residual = 0.00018198, No Iterations 6
GAMG:  Solving for p, Initial residual = 0.0106434, Final residual = 9.89288e-05, No Iterations 6
GAMG:  Solving for p, Initial residual = 0.00207235, Final residual = 1.8667e-05, No Iterations 20
time step continuity errors : sum local = 6.48071e-08, global = -1.82907e-08, cumulative = -6.38245e-07
PIMPLE: iteration 3
DILUPBiCG:  Solving for Ux, Initial residual = 0.000565239, Final residual = 7.49324e-06, No Iterations 1
DILUPBiCG:  Solving for Uy, Initial residual = 0.000147971, Final residual = 1.59103e-06, No Iterations 1
DILUPBiCG:  Solving for Uz, Initial residual = 0.00173402, Final residual = 8.99487e-07, No Iterations 2
GAMG:  Solving for p, Initial residual = 0.0692205, Final residual = 0.000452849, No Iterations 5
GAMG:  Solving for p, Initial residual = 0.0133254, Final residual = 0.000124546, No Iterations 16
GAMG:  Solving for p, Initial residual = 0.00907848, Final residual = 7.69133e-05, No Iterations 8
time step continuity errors : sum local = 2.88543e-07, global = -7.09087e-08, cumulative = -7.09154e-07
GAMG:  Solving for p, Initial residual = 0.00311038, Final residual = 2.38931e-05, No Iterations 8
GAMG:  Solving for p, Initial residual = 0.00164355, Final residual = 1.61762e-05, No Iterations 4
GAMG:  Solving for p, Initial residual = 0.000567388, Final residual = 9.8038e-07, No Iterations 31
time step continuity errors : sum local = 3.62245e-09, global = 1.09998e-09, cumulative = -7.08054e-07
DILUPBiCG:  Solving for omega, Initial residual = 0.00129313, Final residual = 6.66522e-07, No Iterations 1
DILUPBiCG:  Solving for k, Initial residual = 0.00308379, Final residual = 7.28585e-07, No Iterations 2
bounding k, min: 0 max: 0.000505391 average: 0.000144109
ExecutionTime = 31.61 s  ClockTime = 32 s

Courant Number mean: 0.0993189 max: 0.218901
Time = 0.499

GAMG:  Solving for cellDisplacementx, Initial residual = 0, Final residual = 0, No Iterations 0
GAMG:  Solving for cellDisplacementy, Initial residual = 0, Final residual = 0, No Iterations 0
GAMG:  Solving for cellDisplacementz, Initial residual = 0, Final residual = 0, No Iterations 0
PIMPLE: iteration 1
DILUPBiCG:  Solving for Ux, Initial residual = 0.014717, Final residual = 5.78462e-05, No Iterations 1
DILUPBiCG:  Solving for Uy, Initial residual = 0.0032805, Final residual = 6.50426e-06, No Iterations 1
DILUPBiCG:  Solving for Uz, Initial residual = 0.00816666, Final residual = 1.67827e-05, No Iterations 1
GAMG:  Solving for p, Initial residual = 0.0833698, Final residual = 0.000572893, No Iterations 4
GAMG:  Solving for p, Initial residual = 0.0199583, Final residual = 0.00016122, No Iterations 10
GAMG:  Solving for p, Initial residual = 0.00682697, Final residual = 6.81212e-05, No Iterations 10
time step continuity errors : sum local = 1.99239e-07, global = -4.97668e-08, cumulative = -7.57821e-07
GAMG:  Solving for p, Initial residual = 0.0426504, Final residual = 0.000268919, No Iterations 4
GAMG:  Solving for p, Initial residual = 0.0100974, Final residual = 9.89257e-05, No Iterations 8
GAMG:  Solving for p, Initial residual = 0.0032276, Final residual = 2.96609e-05, No Iterations 14
time step continuity errors : sum local = 8.67267e-08, global = -2.59222e-08, cumulative = -7.83743e-07
PIMPLE: iteration 2
DILUPBiCG:  Solving for Ux, Initial residual = 0.00302028, Final residual = 2.22947e-05, No Iterations 1
DILUPBiCG:  Solving for Uy, Initial residual = 0.00069354, Final residual = 1.77374e-06, No Iterations 1
DILUPBiCG:  Solving for Uz, Initial residual = 0.00296935, Final residual = 0.000126671, No Iterations 1
GAMG:  Solving for p, Initial residual = 0.0393225, Final residual = 0.000360857, No Iterations 8
GAMG:  Solving for p, Initial residual = 0.0277161, Final residual = 0.000236345, No Iterations 5
GAMG:  Solving for p, Initial residual = 0.00454206, Final residual = 4.16928e-05, No Iterations 21
time step continuity errors : sum local = 1.06334e-07, global = -3.04475e-08, cumulative = -8.1419e-07
GAMG:  Solving for p, Initial residual = 0.0211177, Final residual = 0.000169821, No Iterations 8
GAMG:  Solving for p, Initial residual = 0.0133669, Final residual = 0.000109907, No Iterations 5
GAMG:  Solving for p, Initial residual = 0.00220675, Final residual = 2.16133e-05, No Iterations 19
time step continuity errors : sum local = 5.50883e-08, global = -1.55057e-08, cumulative = -8.29696e-07
PIMPLE: iteration 3
DILUPBiCG:  Solving for Ux, Initial residual = 0.000228956, Final residual = 2.0114e-06, No Iterations 1
DILUPBiCG:  Solving for Uy, Initial residual = 7.91666e-05, Final residual = 4.67406e-07, No Iterations 1
DILUPBiCG:  Solving for Uz, Initial residual = 0.00150056, Final residual = 6.47032e-07, No Iterations 2
GAMG:  Solving for p, Initial residual = 0.0837206, Final residual = 0.00076883, No Iterations 3
GAMG:  Solving for p, Initial residual = 0.0137535, Final residual = 0.000125772, No Iterations 20
GAMG:  Solving for p, Initial residual = 0.0135476, Final residual = 0.000128584, No Iterations 4
time step continuity errors : sum local = 3.46724e-07, global = -5.80356e-08, cumulative = -8.87732e-07
GAMG:  Solving for p, Initial residual = 0.00359735, Final residual = 3.1256e-05, No Iterations 8
GAMG:  Solving for p, Initial residual = 0.0019346, Final residual = 1.85878e-05, No Iterations 4
GAMG:  Solving for p, Initial residual = 0.000665595, Final residual = 8.46869e-07, No Iterations 29
time step continuity errors : sum local = 2.2442e-09, global = 7.50185e-10, cumulative = -8.86981e-07
DILUPBiCG:  Solving for omega, Initial residual = 0.00129215, Final residual = 6.63844e-07, No Iterations 1
DILUPBiCG:  Solving for k, Initial residual = 0.00304949, Final residual = 7.67869e-07, No Iterations 2
bounding k, min: 0 max: 0.000498792 average: 0.000143499
ExecutionTime = 35.67 s  ClockTime = 36 s

Courant Number mean: 0.0987781 max: 0.217658
Time = 0.5

GAMG:  Solving for cellDisplacementx, Initial residual = 0, Final residual = 0, No Iterations 0
GAMG:  Solving for cellDisplacementy, Initial residual = 0, Final residual = 0, No Iterations 0
GAMG:  Solving for cellDisplacementz, Initial residual = 0, Final residual = 0, No Iterations 0
PIMPLE: iteration 1
DILUPBiCG:  Solving for Ux, Initial residual = 0.0091378, Final residual = 3.63443e-05, No Iterations 1
DILUPBiCG:  Solving for Uy, Initial residual = 0.00211177, Final residual = 4.21823e-06, No Iterations 1
DILUPBiCG:  Solving for Uz, Initial residual = 0.00927634, Final residual = 1.93576e-05, No Iterations 1
GAMG:  Solving for p, Initial residual = 0.0811371, Final residual = 0.000678006, No Iterations 6
GAMG:  Solving for p, Initial residual = 0.0468176, Final residual = 0.000373693, No Iterations 4
GAMG:  Solving for p, Initial residual = 0.00806229, Final residual = 7.00006e-05, No Iterations 21
time step continuity errors : sum local = 1.28676e-07, global = -3.67615e-08, cumulative = -9.23743e-07
GAMG:  Solving for p, Initial residual = 0.0439736, Final residual = 0.000387162, No Iterations 5
GAMG:  Solving for p, Initial residual = 0.0225694, Final residual = 0.000147772, No Iterations 4
GAMG:  Solving for p, Initial residual = 0.00403058, Final residual = 3.42102e-05, No Iterations 12
time step continuity errors : sum local = 6.22004e-08, global = -1.81557e-08, cumulative = -9.41899e-07
PIMPLE: iteration 2
DILUPBiCG:  Solving for Ux, Initial residual = 0.0015109, Final residual = 2.6524e-05, No Iterations 1
DILUPBiCG:  Solving for Uy, Initial residual = 0.000376975, Final residual = 4.38801e-06, No Iterations 1
DILUPBiCG:  Solving for Uz, Initial residual = 0.00294444, Final residual = 0.000134264, No Iterations 1
GAMG:  Solving for p, Initial residual = 0.0414806, Final residual = 0.000399716, No Iterations 11
GAMG:  Solving for p, Initial residual = 0.0348315, Final residual = 0.000296804, No Iterations 6
GAMG:  Solving for p, Initial residual = 0.00630134, Final residual = 6.09308e-05, No Iterations 20
time step continuity errors : sum local = 9.96498e-08, global = -2.8229e-08, cumulative = -9.70128e-07
GAMG:  Solving for p, Initial residual = 0.0228878, Final residual = 0.000210657, No Iterations 9
GAMG:  Solving for p, Initial residual = 0.0161967, Final residual = 0.000158446, No Iterations 6
GAMG:  Solving for p, Initial residual = 0.0031705, Final residual = 3.05197e-05, No Iterations 20
time step continuity errors : sum local = 4.97581e-08, global = -1.40932e-08, cumulative = -9.84221e-07
PIMPLE: iteration 3
DILUPBiCG:  Solving for Ux, Initial residual = 0.00019144, Final residual = 1.94446e-06, No Iterations 1
DILUPBiCG:  Solving for Uy, Initial residual = 7.06321e-05, Final residual = 8.97362e-07, No Iterations 1
DILUPBiCG:  Solving for Uz, Initial residual = 0.00114206, Final residual = 7.14999e-06, No Iterations 1
GAMG:  Solving for p, Initial residual = 0.114963, Final residual = 0.0010212, No Iterations 3
GAMG:  Solving for p, Initial residual = 0.0162242, Final residual = 0.000155224, No Iterations 20
GAMG:  Solving for p, Initial residual = 0.0176653, Final residual = 0.00017292, No Iterations 4
time step continuity errors : sum local = 2.81077e-07, global = -4.40027e-08, cumulative = -1.02822e-06
GAMG:  Solving for p, Initial residual = 0.00467397, Final residual = 3.71227e-05, No Iterations 8
GAMG:  Solving for p, Initial residual = 0.00235095, Final residual = 1.81737e-05, No Iterations 6
GAMG:  Solving for p, Initial residual = 0.000778999, Final residual = 9.79544e-07, No Iterations 23
time step continuity errors : sum local = 1.55606e-09, global = 5.57267e-10, cumulative = -1.02767e-06
DILUPBiCG:  Solving for omega, Initial residual = 0.00128769, Final residual = 6.62417e-07, No Iterations 1
DILUPBiCG:  Solving for k, Initial residual = 0.00301654, Final residual = 8.09729e-07, No Iterations 2
bounding k, min: 0 max: 0.000492053 average: 0.000142915
ExecutionTime = 39.65 s  ClockTime = 40 s

End

