/*---------------------------------------------------------------------------*\
| =========                 |                                                 |
| \\      /  F ield         | OpenFOAM: The Open Source CFD Toolbox           |
|  \\    /   O peration     | Version:  2.3.1                                 |
|   \\  /    A nd           | Web:      www.OpenFOAM.org                      |
|    \\/     M anipulation  |                                                 |
\*---------------------------------------------------------------------------*/
Build  : 2.3.1-262087cdf8db
Exec   : pimpleDyMFoam
Date   : Jun 06 2023
Time   : 00:49:27
Host   : "jcosson-VirtualBox"
PID    : 14335
Case   : /home/jcosson/workspace/henersj_shootingdata/calcs/moderate_deformed/primal/100_intervals_05-06-23/sweep24/interval26
nProcs : 1
sigFpe : Enabling floating point exception trapping (FOAM_SIGFPE).
fileModificationChecking : Monitoring run-time modified files using timeStampMaster
allowSystemOperations : Allowing user-supplied system call operations

// * * * * * * * * * * * * * * * * * * * * * * * * * * * * * * * * * * * * * //
Create time

Create mesh for time = 0.425

Selecting dynamicFvMesh dynamicMotionSolverFvMesh
Selecting motion solver: displacementLaplacian
Selecting motion diffusion: quadratic
Selecting motion diffusion: quadratic
Selecting motion diffusion: inverseDistance

PIMPLE: no residual control data found. Calculations will employ 3 corrector loops

Reading field p

Reading field U

Reading/calculating face flux field phi

Selecting incompressible transport model Newtonian
Selecting turbulence model type RASModel
Selecting RAS turbulence model kOmegaSST
kOmegaSSTCoeffs
{
    alphaK1         0.85034;
    alphaK2         1;
    alphaOmega1     0.5;
    alphaOmega2     0.85616;
    gamma1          0.5532;
    gamma2          0.4403;
    beta1           0.075;
    beta2           0.0828;
    betaStar        0.09;
    a1              0.31;
    c1              10;
    Cmu             0.09;
    b1              1;
    F3              false;
}

Reading/calculating face velocity Uf

No finite volume options present

Courant Number mean: 0.187858 max: 0.405037

Starting time loop

Courant Number mean: 0.187858 max: 0.405037
Time = 0.426

GAMG:  Solving for cellDisplacementx, Initial residual = 0, Final residual = 0, No Iterations 0
GAMG:  Solving for cellDisplacementy, Initial residual = 0, Final residual = 0, No Iterations 0
GAMG:  Solving for cellDisplacementz, Initial residual = 0, Final residual = 0, No Iterations 0
PIMPLE: iteration 1
DILUPBiCG:  Solving for Ux, Initial residual = 0.0593381, Final residual = 0.000198555, No Iterations 1
DILUPBiCG:  Solving for Uy, Initial residual = 0.00991908, Final residual = 2.03321e-05, No Iterations 1
DILUPBiCG:  Solving for Uz, Initial residual = 0.0209733, Final residual = 2.46272e-05, No Iterations 1
GAMG:  Solving for p, Initial residual = 0.125569, Final residual = 0.000819994, No Iterations 6
GAMG:  Solving for p, Initial residual = 0.0156056, Final residual = 0.0001509, No Iterations 16
GAMG:  Solving for p, Initial residual = 0.00688155, Final residual = 6.06952e-05, No Iterations 10
time step continuity errors : sum local = 9.3248e-07, global = -2.40497e-07, cumulative = -2.40497e-07
GAMG:  Solving for p, Initial residual = 0.0540233, Final residual = 0.000496688, No Iterations 4
GAMG:  Solving for p, Initial residual = 0.0077782, Final residual = 7.62479e-05, No Iterations 16
GAMG:  Solving for p, Initial residual = 0.00358957, Final residual = 3.29517e-05, No Iterations 10
time step continuity errors : sum local = 5.06913e-07, global = -1.30908e-07, cumulative = -3.71405e-07
PIMPLE: iteration 2
DILUPBiCG:  Solving for Ux, Initial residual = 0.0166166, Final residual = 7.69071e-05, No Iterations 1
DILUPBiCG:  Solving for Uy, Initial residual = 0.00276677, Final residual = 7.27803e-06, No Iterations 1
DILUPBiCG:  Solving for Uz, Initial residual = 0.00341571, Final residual = 1.80247e-05, No Iterations 1
GAMG:  Solving for p, Initial residual = 0.0546295, Final residual = 0.000470718, No Iterations 4
GAMG:  Solving for p, Initial residual = 0.0093866, Final residual = 8.08795e-05, No Iterations 16
GAMG:  Solving for p, Initial residual = 0.0042548, Final residual = 4.22071e-05, No Iterations 6
time step continuity errors : sum local = 5.54396e-07, global = 1.52977e-07, cumulative = -2.18428e-07
GAMG:  Solving for p, Initial residual = 0.0280952, Final residual = 0.000208757, No Iterations 4
GAMG:  Solving for p, Initial residual = 0.00469976, Final residual = 3.95833e-05, No Iterations 14
GAMG:  Solving for p, Initial residual = 0.00202173, Final residual = 1.98711e-05, No Iterations 6
time step continuity errors : sum local = 2.62318e-07, global = 6.61438e-08, cumulative = -1.52284e-07
PIMPLE: iteration 3
DILUPBiCG:  Solving for Ux, Initial residual = 0.00399756, Final residual = 1.40132e-06, No Iterations 2
DILUPBiCG:  Solving for Uy, Initial residual = 0.000685203, Final residual = 8.57001e-06, No Iterations 1
DILUPBiCG:  Solving for Uz, Initial residual = 0.00807933, Final residual = 3.02244e-06, No Iterations 2
GAMG:  Solving for p, Initial residual = 0.0406343, Final residual = 0.000312504, No Iterations 5
GAMG:  Solving for p, Initial residual = 0.00974856, Final residual = 8.48519e-05, No Iterations 5
GAMG:  Solving for p, Initial residual = 0.00433288, Final residual = 4.01418e-05, No Iterations 10
time step continuity errors : sum local = 5.93156e-07, global = 1.50776e-07, cumulative = -1.50764e-09
GAMG:  Solving for p, Initial residual = 0.00243513, Final residual = 2.11079e-05, No Iterations 18
GAMG:  Solving for p, Initial residual = 0.00136321, Final residual = 1.06943e-05, No Iterations 4
GAMG:  Solving for p, Initial residual = 0.000530262, Final residual = 8.90538e-07, No Iterations 32
time step continuity errors : sum local = 1.30704e-08, global = -3.83764e-09, cumulative = -5.34528e-09
DILUPBiCG:  Solving for omega, Initial residual = 0.000644818, Final residual = 7.34499e-07, No Iterations 1
DILUPBiCG:  Solving for k, Initial residual = 0.00469571, Final residual = 1.18699e-06, No Iterations 2
ExecutionTime = 17.76 s  ClockTime = 18 s

End

