/*---------------------------------------------------------------------------*\
| =========                 |                                                 |
| \\      /  F ield         | OpenFOAM: The Open Source CFD Toolbox           |
|  \\    /   O peration     | Version:  2.3.1                                 |
|   \\  /    A nd           | Web:      www.OpenFOAM.org                      |
|    \\/     M anipulation  |                                                 |
\*---------------------------------------------------------------------------*/
Build  : 2.3.1-262087cdf8db
Exec   : linearisedPimpleDyMFoam
Date   : Jun 05 2023
Time   : 19:04:25
Host   : "jcosson-VirtualBox"
PID    : 29972
Case   : /home/jcosson/workspace/henersj_shootingdata/calcs/moderate_deformed/primal/56_intervals_05-06-23/sweep28/interval56
nProcs : 1
sigFpe : Enabling floating point exception trapping (FOAM_SIGFPE).
fileModificationChecking : Monitoring run-time modified files using timeStampMaster
allowSystemOperations : Allowing user-supplied system call operations

// * * * * * * * * * * * * * * * * * * * * * * * * * * * * * * * * * * * * * //
Create time

Create mesh for time = 0.498

Selecting dynamicFvMesh dynamicMotionSolverFvMesh
Selecting motion solver: displacementLaplacian
Selecting motion diffusion: quadratic
Selecting motion diffusion: quadratic
Selecting motion diffusion: inverseDistance
Reading field linP

Reading field linU

starte createPhia.H

Reading/calculating face flux field linPhi

Adjungierte Interpolation durchgefuehrt

createPhia.H verlassen

setRefCell ausgefuehrt

No finite volume options present


PIMPLE: no residual control data found. Calculations will employ 3 corrector loops


Starting time loop

Time = 0.499

Reading field p

Reading field U

Read primal fluxes 

Reading primal face flux fields phi/meshPhi

Created primal fluxes 

Selecting incompressible transport model Newtonian
singlePhaseTransportModel gewaehlt 

Selecting turbulence model type RASModel
Selecting RAS turbulence model kOmegaSST
bounding k, min: 0 max: 0.000499514 average: 0.000145955
kOmegaSSTCoeffs
{
    alphaK1         0.85034;
    alphaK2         1;
    alphaOmega1     0.5;
    alphaOmega2     0.85616;
    gamma1          0.5532;
    gamma2          0.4403;
    beta1           0.075;
    beta2           0.0828;
    betaStar        0.09;
    a1              0.31;
    c1              10;
    Cmu             0.09;
    b1              1;
    F3              false;
}

autoPtr ausgefuehrt

Reading/calculating face velocity Uf

Init adjoint face velocity linUf

Courant Number mean: 0.0989901 max: 0.228012
Adjoint Courant Number mean: 0.000244154 max: 0.00236692
GAMG:  Solving for cellDisplacementx, Initial residual = 0, Final residual = 0, No Iterations 0
GAMG:  Solving for cellDisplacementy, Initial residual = 0, Final residual = 0, No Iterations 0
GAMG:  Solving for cellDisplacementz, Initial residual = 0, Final residual = 0, No Iterations 0
PIMPLE: iteration 1
DILUPBiCG:  Solving for linUx, Initial residual = 0.0142729, Final residual = 5.18533e-05, No Iterations 1
DILUPBiCG:  Solving for linUy, Initial residual = 0.0265344, Final residual = 7.01471e-05, No Iterations 1
DILUPBiCG:  Solving for linUz, Initial residual = 0.0606673, Final residual = 0.000116882, No Iterations 1
GAMG:  Solving for linP, Initial residual = 1, Final residual = 0.00393918, No Iterations 3
GAMG:  Solving for linP, Initial residual = 0.0231082, Final residual = 8.39307e-05, No Iterations 5
GAMG:  Solving for linP, Initial residual = 0.00704469, Final residual = 5.69297e-05, No Iterations 4
Adjoint continuity errors : sum local = 5.91002e-09, global = 7.73235e-11, cumulative = 7.73235e-11
GAMG:  Solving for linP, Initial residual = 0.0200111, Final residual = 8.18234e-05, No Iterations 4
GAMG:  Solving for linP, Initial residual = 0.00413706, Final residual = 3.68436e-05, No Iterations 4
GAMG:  Solving for linP, Initial residual = 0.00150459, Final residual = 1.33561e-05, No Iterations 4
Adjoint continuity errors : sum local = 1.35499e-09, global = -7.02724e-11, cumulative = 7.05114e-12
PIMPLE: iteration 2
DILUPBiCG:  Solving for linUx, Initial residual = 0.00126713, Final residual = 1.0724e-05, No Iterations 1
DILUPBiCG:  Solving for linUy, Initial residual = 0.00240939, Final residual = 6.01361e-05, No Iterations 1
DILUPBiCG:  Solving for linUz, Initial residual = 0.00466456, Final residual = 1.30185e-05, No Iterations 1
GAMG:  Solving for linP, Initial residual = 0.0272668, Final residual = 0.00010946, No Iterations 3
GAMG:  Solving for linP, Initial residual = 0.00225627, Final residual = 1.02433e-05, No Iterations 4
GAMG:  Solving for linP, Initial residual = 0.000705027, Final residual = 2.85423e-06, No Iterations 4
Adjoint continuity errors : sum local = 2.97882e-10, global = 4.28531e-11, cumulative = 4.99043e-11
GAMG:  Solving for linP, Initial residual = 0.000916823, Final residual = 3.57174e-06, No Iterations 4
GAMG:  Solving for linP, Initial residual = 0.000298435, Final residual = 2.7373e-06, No Iterations 3
GAMG:  Solving for linP, Initial residual = 0.000101813, Final residual = 5.64532e-07, No Iterations 4
Adjoint continuity errors : sum local = 5.88895e-11, global = 5.93201e-12, cumulative = 5.58363e-11
PIMPLE: iteration 3
DILUPBiCG:  Solving for linUx, Initial residual = 0.000136952, Final residual = 1.38616e-06, No Iterations 1
DILUPBiCG:  Solving for linUy, Initial residual = 0.000231219, Final residual = 3.80839e-06, No Iterations 1
DILUPBiCG:  Solving for linUz, Initial residual = 0.000400571, Final residual = 2.23353e-06, No Iterations 1
GAMG:  Solving for linP, Initial residual = 0.0368169, Final residual = 0.000258121, No Iterations 2
GAMG:  Solving for linP, Initial residual = 0.0017065, Final residual = 8.03915e-06, No Iterations 4
GAMG:  Solving for linP, Initial residual = 0.000621353, Final residual = 2.94677e-06, No Iterations 4
Adjoint continuity errors : sum local = 3.20034e-10, global = -4.50553e-11, cumulative = 1.0781e-11
GAMG:  Solving for linP, Initial residual = 0.000965964, Final residual = 5.04941e-06, No Iterations 3
GAMG:  Solving for linP, Initial residual = 0.000159027, Final residual = 8.08964e-07, No Iterations 4
GAMG:  Solving for linP, Initial residual = 6.37729e-05, Final residual = 3.52696e-07, No Iterations 4
Adjoint continuity errors : sum local = 3.83542e-11, global = 3.90537e-12, cumulative = 1.46864e-11
ExecutionTime = 10.2 s  ClockTime = 11 s

Time = 0.5

Reading field p

Reading field U

Read primal fluxes 

Reading primal face flux fields phi/meshPhi

Created primal fluxes 

Selecting incompressible transport model Newtonian
singlePhaseTransportModel gewaehlt 

Selecting turbulence model type RASModel
Selecting RAS turbulence model kOmegaSST
bounding k, min: 0 max: 0.000492402 average: 0.000145302
kOmegaSSTCoeffs
{
    alphaK1         0.85034;
    alphaK2         1;
    alphaOmega1     0.5;
    alphaOmega2     0.85616;
    gamma1          0.5532;
    gamma2          0.4403;
    beta1           0.075;
    beta2           0.0828;
    betaStar        0.09;
    a1              0.31;
    c1              10;
    Cmu             0.09;
    b1              1;
    F3              false;
}

autoPtr ausgefuehrt

Reading/calculating face velocity Uf

Init adjoint face velocity linUf

Courant Number mean: 0.0988041 max: 0.227444
Adjoint Courant Number mean: 0.000242141 max: 0.00287446
GAMG:  Solving for cellDisplacementx, Initial residual = 0, Final residual = 0, No Iterations 0
GAMG:  Solving for cellDisplacementy, Initial residual = 0, Final residual = 0, No Iterations 0
GAMG:  Solving for cellDisplacementz, Initial residual = 0, Final residual = 0, No Iterations 0
PIMPLE: iteration 1
DILUPBiCG:  Solving for linUx, Initial residual = 0.0107075, Final residual = 3.70377e-05, No Iterations 1
DILUPBiCG:  Solving for linUy, Initial residual = 0.0210713, Final residual = 5.43811e-05, No Iterations 1
DILUPBiCG:  Solving for linUz, Initial residual = 0.0393449, Final residual = 7.51488e-05, No Iterations 1
GAMG:  Solving for linP, Initial residual = 0.289171, Final residual = 0.00256947, No Iterations 2
GAMG:  Solving for linP, Initial residual = 0.00948828, Final residual = 6.68596e-05, No Iterations 4
GAMG:  Solving for linP, Initial residual = 0.00301951, Final residual = 2.89349e-05, No Iterations 3
Adjoint continuity errors : sum local = 4.35934e-09, global = 4.96038e-10, cumulative = 5.10725e-10
GAMG:  Solving for linP, Initial residual = 0.00606637, Final residual = 5.27624e-05, No Iterations 3
GAMG:  Solving for linP, Initial residual = 0.00123082, Final residual = 7.59341e-06, No Iterations 4
GAMG:  Solving for linP, Initial residual = 0.000410503, Final residual = 2.99984e-06, No Iterations 4
Adjoint continuity errors : sum local = 4.49217e-10, global = -6.479e-11, cumulative = 4.45935e-10
PIMPLE: iteration 2
DILUPBiCG:  Solving for linUx, Initial residual = 0.00101751, Final residual = 8.98623e-06, No Iterations 1
DILUPBiCG:  Solving for linUy, Initial residual = 0.00177543, Final residual = 0.000107666, No Iterations 1
DILUPBiCG:  Solving for linUz, Initial residual = 0.00308197, Final residual = 7.02927e-06, No Iterations 1
GAMG:  Solving for linP, Initial residual = 0.0127092, Final residual = 5.658e-05, No Iterations 3
GAMG:  Solving for linP, Initial residual = 0.000814844, Final residual = 4.21287e-06, No Iterations 4
GAMG:  Solving for linP, Initial residual = 0.000280738, Final residual = 2.24057e-06, No Iterations 4
Adjoint continuity errors : sum local = 3.39976e-10, global = -4.71343e-11, cumulative = 3.988e-10
GAMG:  Solving for linP, Initial residual = 0.000357511, Final residual = 3.17675e-06, No Iterations 3
GAMG:  Solving for linP, Initial residual = 9.64467e-05, Final residual = 9.03429e-07, No Iterations 3
GAMG:  Solving for linP, Initial residual = 3.55267e-05, Final residual = 6.03402e-07, No Iterations 3
Adjoint continuity errors : sum local = 9.15505e-11, global = 2.32408e-12, cumulative = 4.01124e-10
PIMPLE: iteration 3
DILUPBiCG:  Solving for linUx, Initial residual = 0.000130633, Final residual = 1.35809e-06, No Iterations 1
DILUPBiCG:  Solving for linUy, Initial residual = 0.000213628, Final residual = 3.02922e-06, No Iterations 1
DILUPBiCG:  Solving for linUz, Initial residual = 0.000370268, Final residual = 1.86928e-06, No Iterations 1
GAMG:  Solving for linP, Initial residual = 0.0417546, Final residual = 0.000364794, No Iterations 2
GAMG:  Solving for linP, Initial residual = 0.00151575, Final residual = 9.35804e-06, No Iterations 4
GAMG:  Solving for linP, Initial residual = 0.000538013, Final residual = 2.34889e-06, No Iterations 4
Adjoint continuity errors : sum local = 3.67003e-10, global = -5.3065e-11, cumulative = 3.4806e-10
GAMG:  Solving for linP, Initial residual = 0.000902378, Final residual = 5.24215e-06, No Iterations 3
GAMG:  Solving for linP, Initial residual = 0.000144658, Final residual = 1.23813e-06, No Iterations 4
GAMG:  Solving for linP, Initial residual = 5.53721e-05, Final residual = 5.24432e-07, No Iterations 3
Adjoint continuity errors : sum local = 8.20358e-11, global = 9.51505e-14, cumulative = 3.48155e-10
ExecutionTime = 15.08 s  ClockTime = 16 s

End

