/*---------------------------------------------------------------------------*\
| =========                 |                                                 |
| \\      /  F ield         | OpenFOAM: The Open Source CFD Toolbox           |
|  \\    /   O peration     | Version:  2.3.1                                 |
|   \\  /    A nd           | Web:      www.OpenFOAM.org                      |
|    \\/     M anipulation  |                                                 |
\*---------------------------------------------------------------------------*/
Build  : 2.3.1-262087cdf8db
Exec   : pimpleDyMFoam
Date   : Jun 05 2023
Time   : 19:02:42
Host   : "jcosson-VirtualBox"
PID    : 29334
Case   : /home/jcosson/workspace/henersj_shootingdata/calcs/moderate_deformed/primal/56_intervals_05-06-23/sweep28/interval40
nProcs : 1
sigFpe : Enabling floating point exception trapping (FOAM_SIGFPE).
fileModificationChecking : Monitoring run-time modified files using timeStampMaster
allowSystemOperations : Allowing user-supplied system call operations

// * * * * * * * * * * * * * * * * * * * * * * * * * * * * * * * * * * * * * //
Create time

Create mesh for time = 0.47

Selecting dynamicFvMesh dynamicMotionSolverFvMesh
Selecting motion solver: displacementLaplacian
Selecting motion diffusion: quadratic
Selecting motion diffusion: quadratic
Selecting motion diffusion: inverseDistance

PIMPLE: no residual control data found. Calculations will employ 3 corrector loops

Reading field p

Reading field U

Reading/calculating face flux field phi

Selecting incompressible transport model Newtonian
Selecting turbulence model type RASModel
Selecting RAS turbulence model kOmegaSST
kOmegaSSTCoeffs
{
    alphaK1         0.85034;
    alphaK2         1;
    alphaOmega1     0.5;
    alphaOmega2     0.85616;
    gamma1          0.5532;
    gamma2          0.4403;
    beta1           0.075;
    beta2           0.0828;
    betaStar        0.09;
    a1              0.31;
    c1              10;
    Cmu             0.09;
    b1              1;
    F3              false;
}

Reading/calculating face velocity Uf

No finite volume options present

Courant Number mean: 0.217103 max: 0.481207

Starting time loop

Courant Number mean: 0.217103 max: 0.481207
Time = 0.471

GAMG:  Solving for cellDisplacementx, Initial residual = 0, Final residual = 0, No Iterations 0
GAMG:  Solving for cellDisplacementy, Initial residual = 0, Final residual = 0, No Iterations 0
GAMG:  Solving for cellDisplacementz, Initial residual = 0, Final residual = 0, No Iterations 0
PIMPLE: iteration 1
DILUPBiCG:  Solving for Ux, Initial residual = 0.0492455, Final residual = 0.000204808, No Iterations 1
DILUPBiCG:  Solving for Uy, Initial residual = 0.00805785, Final residual = 1.87195e-05, No Iterations 1
DILUPBiCG:  Solving for Uz, Initial residual = 0.0126496, Final residual = 2.97037e-05, No Iterations 1
GAMG:  Solving for p, Initial residual = 0.129989, Final residual = 0.00102457, No Iterations 6
GAMG:  Solving for p, Initial residual = 0.0150187, Final residual = 0.000149589, No Iterations 18
GAMG:  Solving for p, Initial residual = 0.00652475, Final residual = 5.93203e-05, No Iterations 12
time step continuity errors : sum local = 8.43532e-07, global = 2.53959e-07, cumulative = 2.53959e-07
GAMG:  Solving for p, Initial residual = 0.0548213, Final residual = 0.000343886, No Iterations 6
GAMG:  Solving for p, Initial residual = 0.0075754, Final residual = 7.14986e-05, No Iterations 16
GAMG:  Solving for p, Initial residual = 0.00338788, Final residual = 2.94496e-05, No Iterations 12
time step continuity errors : sum local = 4.18392e-07, global = 1.25196e-07, cumulative = 3.79155e-07
PIMPLE: iteration 2
DILUPBiCG:  Solving for Ux, Initial residual = 0.0144201, Final residual = 8.40238e-05, No Iterations 1
DILUPBiCG:  Solving for Uy, Initial residual = 0.00248792, Final residual = 5.741e-06, No Iterations 1
DILUPBiCG:  Solving for Uz, Initial residual = 0.00362197, Final residual = 1.2648e-05, No Iterations 1
GAMG:  Solving for p, Initial residual = 0.0553098, Final residual = 0.000473422, No Iterations 4
GAMG:  Solving for p, Initial residual = 0.00899147, Final residual = 8.49844e-05, No Iterations 16
GAMG:  Solving for p, Initial residual = 0.00412059, Final residual = 3.96922e-05, No Iterations 8
time step continuity errors : sum local = 4.79658e-07, global = -1.44629e-07, cumulative = 2.34526e-07
GAMG:  Solving for p, Initial residual = 0.028394, Final residual = 0.000205664, No Iterations 4
GAMG:  Solving for p, Initial residual = 0.00445645, Final residual = 3.90103e-05, No Iterations 14
GAMG:  Solving for p, Initial residual = 0.00193106, Final residual = 1.88724e-05, No Iterations 8
time step continuity errors : sum local = 2.29326e-07, global = -6.41751e-08, cumulative = 1.70351e-07
PIMPLE: iteration 3
DILUPBiCG:  Solving for Ux, Initial residual = 0.00359261, Final residual = 1.79876e-06, No Iterations 2
DILUPBiCG:  Solving for Uy, Initial residual = 0.00061923, Final residual = 6.85137e-06, No Iterations 1
DILUPBiCG:  Solving for Uz, Initial residual = 0.00718049, Final residual = 3.01308e-06, No Iterations 2
GAMG:  Solving for p, Initial residual = 0.0402338, Final residual = 0.000328496, No Iterations 5
GAMG:  Solving for p, Initial residual = 0.00904083, Final residual = 8.76408e-05, No Iterations 13
GAMG:  Solving for p, Initial residual = 0.00435042, Final residual = 3.56936e-05, No Iterations 12
time step continuity errors : sum local = 4.84331e-07, global = -1.41055e-07, cumulative = 2.92963e-08
GAMG:  Solving for p, Initial residual = 0.00246755, Final residual = 2.44843e-05, No Iterations 18
GAMG:  Solving for p, Initial residual = 0.00136683, Final residual = 1.3101e-05, No Iterations 4
GAMG:  Solving for p, Initial residual = 0.000546283, Final residual = 9.79178e-07, No Iterations 36
time step continuity errors : sum local = 1.32257e-08, global = 3.89248e-09, cumulative = 3.31887e-08
DILUPBiCG:  Solving for omega, Initial residual = 0.000501385, Final residual = 6.24232e-07, No Iterations 1
DILUPBiCG:  Solving for k, Initial residual = 0.0046171, Final residual = 1.73875e-06, No Iterations 2
ExecutionTime = 17.38 s  ClockTime = 17 s

End

