/*---------------------------------------------------------------------------*\
| =========                 |                                                 |
| \\      /  F ield         | OpenFOAM: The Open Source CFD Toolbox           |
|  \\    /   O peration     | Version:  2.3.1                                 |
|   \\  /    A nd           | Web:      www.OpenFOAM.org                      |
|    \\/     M anipulation  |                                                 |
\*---------------------------------------------------------------------------*/
Build  : 2.3.1-262087cdf8db
Exec   : pimpleDyMFoam
Date   : Jun 05 2023
Time   : 19:12:11
Host   : "jcosson-VirtualBox"
PID    : 32593
Case   : /home/jcosson/workspace/henersj_shootingdata/calcs/moderate_deformed/primal/56_intervals_05-06-23/sweep33/interval46
nProcs : 1
sigFpe : Enabling floating point exception trapping (FOAM_SIGFPE).
fileModificationChecking : Monitoring run-time modified files using timeStampMaster
allowSystemOperations : Allowing user-supplied system call operations

// * * * * * * * * * * * * * * * * * * * * * * * * * * * * * * * * * * * * * //
Create time

Create mesh for time = 0.48

Selecting dynamicFvMesh dynamicMotionSolverFvMesh
Selecting motion solver: displacementLaplacian
Selecting motion diffusion: quadratic
Selecting motion diffusion: quadratic
Selecting motion diffusion: inverseDistance

PIMPLE: no residual control data found. Calculations will employ 3 corrector loops

Reading field p

Reading field U

Reading/calculating face flux field phi

Selecting incompressible transport model Newtonian
Selecting turbulence model type RASModel
Selecting RAS turbulence model kOmegaSST
bounding k, min: 0 max: 0.000714171 average: 0.00015854
kOmegaSSTCoeffs
{
    alphaK1         0.85034;
    alphaK2         1;
    alphaOmega1     0.5;
    alphaOmega2     0.85616;
    gamma1          0.5532;
    gamma2          0.4403;
    beta1           0.075;
    beta2           0.0828;
    betaStar        0.09;
    a1              0.31;
    c1              10;
    Cmu             0.09;
    b1              1;
    F3              false;
}

Reading/calculating face velocity Uf

No finite volume options present

Courant Number mean: 0.161038 max: 0.35335

Starting time loop

Courant Number mean: 0.161038 max: 0.35335
Time = 0.481

GAMG:  Solving for cellDisplacementx, Initial residual = 0, Final residual = 0, No Iterations 0
GAMG:  Solving for cellDisplacementy, Initial residual = 0, Final residual = 0, No Iterations 0
GAMG:  Solving for cellDisplacementz, Initial residual = 0, Final residual = 0, No Iterations 0
PIMPLE: iteration 1
DILUPBiCG:  Solving for Ux, Initial residual = 0.064179, Final residual = 0.000257391, No Iterations 1
DILUPBiCG:  Solving for Uy, Initial residual = 0.0113733, Final residual = 2.46357e-05, No Iterations 1
DILUPBiCG:  Solving for Uz, Initial residual = 0.0112048, Final residual = 1.89642e-05, No Iterations 1
GAMG:  Solving for p, Initial residual = 0.119648, Final residual = 0.00115316, No Iterations 4
GAMG:  Solving for p, Initial residual = 0.0145508, Final residual = 0.000129818, No Iterations 20
GAMG:  Solving for p, Initial residual = 0.00676778, Final residual = 5.98229e-05, No Iterations 10
time step continuity errors : sum local = 9.03289e-07, global = 2.41406e-07, cumulative = 2.41406e-07
GAMG:  Solving for p, Initial residual = 0.0521311, Final residual = 0.00044771, No Iterations 4
GAMG:  Solving for p, Initial residual = 0.00729078, Final residual = 6.31094e-05, No Iterations 18
GAMG:  Solving for p, Initial residual = 0.00343502, Final residual = 3.03917e-05, No Iterations 10
time step continuity errors : sum local = 4.6016e-07, global = 1.22995e-07, cumulative = 3.64401e-07
PIMPLE: iteration 2
DILUPBiCG:  Solving for Ux, Initial residual = 0.017612, Final residual = 0.000108311, No Iterations 1
DILUPBiCG:  Solving for Uy, Initial residual = 0.00328637, Final residual = 7.03387e-06, No Iterations 1
DILUPBiCG:  Solving for Uz, Initial residual = 0.00307325, Final residual = 1.1574e-05, No Iterations 1
GAMG:  Solving for p, Initial residual = 0.0517686, Final residual = 0.000479474, No Iterations 4
GAMG:  Solving for p, Initial residual = 0.00892564, Final residual = 8.56034e-05, No Iterations 16
GAMG:  Solving for p, Initial residual = 0.0039283, Final residual = 3.63272e-05, No Iterations 10
time step continuity errors : sum local = 4.74284e-07, global = -1.24211e-07, cumulative = 2.4019e-07
GAMG:  Solving for p, Initial residual = 0.0267901, Final residual = 0.000215569, No Iterations 4
GAMG:  Solving for p, Initial residual = 0.00449588, Final residual = 4.10727e-05, No Iterations 14
GAMG:  Solving for p, Initial residual = 0.00186734, Final residual = 1.79122e-05, No Iterations 10
time step continuity errors : sum local = 2.34922e-07, global = -6.02505e-08, cumulative = 1.79939e-07
PIMPLE: iteration 3
DILUPBiCG:  Solving for Ux, Initial residual = 0.00406172, Final residual = 3.0954e-06, No Iterations 2
DILUPBiCG:  Solving for Uy, Initial residual = 0.000771931, Final residual = 5.49862e-06, No Iterations 1
DILUPBiCG:  Solving for Uz, Initial residual = 0.00650289, Final residual = 3.5524e-06, No Iterations 2
GAMG:  Solving for p, Initial residual = 0.0417665, Final residual = 0.000359275, No Iterations 5
GAMG:  Solving for p, Initial residual = 0.00956182, Final residual = 7.60119e-05, No Iterations 10
GAMG:  Solving for p, Initial residual = 0.00450676, Final residual = 4.33772e-05, No Iterations 4
time step continuity errors : sum local = 6.35575e-07, global = -2.13731e-07, cumulative = -3.37924e-08
GAMG:  Solving for p, Initial residual = 0.00237017, Final residual = 2.31513e-05, No Iterations 13
GAMG:  Solving for p, Initial residual = 0.00128269, Final residual = 1.00802e-05, No Iterations 5
GAMG:  Solving for p, Initial residual = 0.000535824, Final residual = 9.90286e-07, No Iterations 28
time step continuity errors : sum local = 1.4412e-08, global = 4.33601e-09, cumulative = -2.94564e-08
DILUPBiCG:  Solving for omega, Initial residual = 0.000840404, Final residual = 7.13219e-07, No Iterations 1
DILUPBiCG:  Solving for k, Initial residual = 0.00394928, Final residual = 9.99859e-07, No Iterations 2
bounding k, min: 0 max: 0.000703771 average: 0.000157496
ExecutionTime = 17.97 s  ClockTime = 18 s

Courant Number mean: 0.15568 max: 0.341047
Time = 0.482

GAMG:  Solving for cellDisplacementx, Initial residual = 0, Final residual = 0, No Iterations 0
GAMG:  Solving for cellDisplacementy, Initial residual = 0, Final residual = 0, No Iterations 0
GAMG:  Solving for cellDisplacementz, Initial residual = 0, Final residual = 0, No Iterations 0
PIMPLE: iteration 1
DILUPBiCG:  Solving for Ux, Initial residual = 0.0645582, Final residual = 0.000257528, No Iterations 1
DILUPBiCG:  Solving for Uy, Initial residual = 0.011573, Final residual = 2.48503e-05, No Iterations 1
DILUPBiCG:  Solving for Uz, Initial residual = 0.0100435, Final residual = 1.59349e-05, No Iterations 1
GAMG:  Solving for p, Initial residual = 0.111612, Final residual = 0.00111235, No Iterations 4
GAMG:  Solving for p, Initial residual = 0.0126498, Final residual = 0.000125725, No Iterations 20
GAMG:  Solving for p, Initial residual = 0.00609626, Final residual = 5.9174e-05, No Iterations 10
time step continuity errors : sum local = 8.80303e-07, global = 2.32175e-07, cumulative = 2.02719e-07
GAMG:  Solving for p, Initial residual = 0.0486951, Final residual = 0.00043336, No Iterations 4
GAMG:  Solving for p, Initial residual = 0.00638385, Final residual = 6.08254e-05, No Iterations 18
GAMG:  Solving for p, Initial residual = 0.00306886, Final residual = 2.98991e-05, No Iterations 10
time step continuity errors : sum local = 4.45963e-07, global = 1.17992e-07, cumulative = 3.20711e-07
PIMPLE: iteration 2
DILUPBiCG:  Solving for Ux, Initial residual = 0.0175877, Final residual = 0.000108218, No Iterations 1
DILUPBiCG:  Solving for Uy, Initial residual = 0.00331388, Final residual = 7.04068e-06, No Iterations 1
DILUPBiCG:  Solving for Uz, Initial residual = 0.00296298, Final residual = 1.12321e-05, No Iterations 1
GAMG:  Solving for p, Initial residual = 0.0477142, Final residual = 0.00047562, No Iterations 4
GAMG:  Solving for p, Initial residual = 0.00795475, Final residual = 7.11446e-05, No Iterations 18
GAMG:  Solving for p, Initial residual = 0.00356064, Final residual = 3.34273e-05, No Iterations 8
time step continuity errors : sum local = 4.2988e-07, global = -1.15772e-07, cumulative = 2.04938e-07
GAMG:  Solving for p, Initial residual = 0.0247426, Final residual = 0.000214832, No Iterations 4
GAMG:  Solving for p, Initial residual = 0.00401626, Final residual = 3.95716e-05, No Iterations 14
GAMG:  Solving for p, Initial residual = 0.00163429, Final residual = 1.42866e-05, No Iterations 12
time step continuity errors : sum local = 1.84655e-07, global = -5.28439e-08, cumulative = 1.52095e-07
PIMPLE: iteration 3
DILUPBiCG:  Solving for Ux, Initial residual = 0.00401113, Final residual = 3.15152e-06, No Iterations 2
DILUPBiCG:  Solving for Uy, Initial residual = 0.000770965, Final residual = 5.39489e-06, No Iterations 1
DILUPBiCG:  Solving for Uz, Initial residual = 0.00627886, Final residual = 3.87013e-06, No Iterations 2
GAMG:  Solving for p, Initial residual = 0.0413048, Final residual = 0.000350978, No Iterations 5
GAMG:  Solving for p, Initial residual = 0.00933987, Final residual = 8.98537e-05, No Iterations 12
GAMG:  Solving for p, Initial residual = 0.00452466, Final residual = 4.43344e-05, No Iterations 10
time step continuity errors : sum local = 6.41215e-07, global = -1.66922e-07, cumulative = -1.48275e-08
GAMG:  Solving for p, Initial residual = 0.00235039, Final residual = 1.96044e-05, No Iterations 12
GAMG:  Solving for p, Initial residual = 0.00127542, Final residual = 1.17421e-05, No Iterations 4
GAMG:  Solving for p, Initial residual = 0.000519841, Final residual = 9.21201e-07, No Iterations 30
time step continuity errors : sum local = 1.32099e-08, global = 3.95249e-09, cumulative = -1.0875e-08
DILUPBiCG:  Solving for omega, Initial residual = 0.000881217, Final residual = 7.21231e-07, No Iterations 1
DILUPBiCG:  Solving for k, Initial residual = 0.00388883, Final residual = 8.88361e-07, No Iterations 2
bounding k, min: 0 max: 0.000692658 average: 0.000156468
ExecutionTime = 32.89 s  ClockTime = 33 s

End

