/*---------------------------------------------------------------------------*\
| =========                 |                                                 |
| \\      /  F ield         | OpenFOAM: The Open Source CFD Toolbox           |
|  \\    /   O peration     | Version:  2.3.1                                 |
|   \\  /    A nd           | Web:      www.OpenFOAM.org                      |
|    \\/     M anipulation  |                                                 |
\*---------------------------------------------------------------------------*/
Build  : 2.3.1-262087cdf8db
Exec   : linearisedPimpleDyMFoam
Date   : Jun 06 2023
Time   : 00:31:08
Host   : "jcosson-VirtualBox"
PID    : 5706
Case   : /home/jcosson/workspace/henersj_shootingdata/calcs/moderate_deformed/primal/100_intervals_05-06-23/sweep18/interval32
nProcs : 1
sigFpe : Enabling floating point exception trapping (FOAM_SIGFPE).
fileModificationChecking : Monitoring run-time modified files using timeStampMaster
allowSystemOperations : Allowing user-supplied system call operations

// * * * * * * * * * * * * * * * * * * * * * * * * * * * * * * * * * * * * * //
Create time

Create mesh for time = 0.431

Selecting dynamicFvMesh dynamicMotionSolverFvMesh
Selecting motion solver: displacementLaplacian
Selecting motion diffusion: quadratic
Selecting motion diffusion: quadratic
Selecting motion diffusion: inverseDistance
Reading field linP

Reading field linU

starte createPhia.H

Reading/calculating face flux field linPhi

Adjungierte Interpolation durchgefuehrt

createPhia.H verlassen

setRefCell ausgefuehrt

No finite volume options present


PIMPLE: no residual control data found. Calculations will employ 3 corrector loops


Starting time loop

Time = 0.432

Reading field p

Reading field U

Read primal fluxes 

Reading primal face flux fields phi/meshPhi

Created primal fluxes 

Selecting incompressible transport model Newtonian
singlePhaseTransportModel gewaehlt 

Selecting turbulence model type RASModel
Selecting RAS turbulence model kOmegaSST
kOmegaSSTCoeffs
{
    alphaK1         0.85034;
    alphaK2         1;
    alphaOmega1     0.5;
    alphaOmega2     0.85616;
    gamma1          0.5532;
    gamma2          0.4403;
    beta1           0.075;
    beta2           0.0828;
    betaStar        0.09;
    a1              0.31;
    c1              10;
    Cmu             0.09;
    b1              1;
    F3              false;
}

autoPtr ausgefuehrt

Reading/calculating face velocity Uf

Init adjoint face velocity linUf

Courant Number mean: 0.226942 max: 0.493512
Adjoint Courant Number mean: 0.000176077 max: 0.00586422
GAMG:  Solving for cellDisplacementx, Initial residual = 0, Final residual = 0, No Iterations 0
GAMG:  Solving for cellDisplacementy, Initial residual = 0, Final residual = 0, No Iterations 0
GAMG:  Solving for cellDisplacementz, Initial residual = 0, Final residual = 0, No Iterations 0
PIMPLE: iteration 1
DILUPBiCG:  Solving for linUx, Initial residual = 0.0482567, Final residual = 0.000100422, No Iterations 1
DILUPBiCG:  Solving for linUy, Initial residual = 0.091235, Final residual = 0.000148533, No Iterations 1
DILUPBiCG:  Solving for linUz, Initial residual = 0.116947, Final residual = 0.000223998, No Iterations 1
GAMG:  Solving for linP, Initial residual = 1, Final residual = 0.00279449, No Iterations 3
GAMG:  Solving for linP, Initial residual = 0.0147232, Final residual = 0.000138902, No Iterations 4
GAMG:  Solving for linP, Initial residual = 0.00460174, Final residual = 3.56849e-05, No Iterations 4
Adjoint continuity errors : sum local = 1.19396e-08, global = 2.43051e-09, cumulative = 2.43051e-09
GAMG:  Solving for linP, Initial residual = 0.0336676, Final residual = 0.00020177, No Iterations 3
GAMG:  Solving for linP, Initial residual = 0.00385649, Final residual = 1.22571e-05, No Iterations 5
GAMG:  Solving for linP, Initial residual = 0.00131688, Final residual = 1.03631e-05, No Iterations 4
Adjoint continuity errors : sum local = 3.34786e-09, global = -7.32497e-11, cumulative = 2.35726e-09
PIMPLE: iteration 2
DILUPBiCG:  Solving for linUx, Initial residual = 0.00750928, Final residual = 2.05355e-05, No Iterations 1
DILUPBiCG:  Solving for linUy, Initial residual = 0.0150064, Final residual = 3.05797e-05, No Iterations 1
DILUPBiCG:  Solving for linUz, Initial residual = 0.0167903, Final residual = 4.04525e-05, No Iterations 1
GAMG:  Solving for linP, Initial residual = 0.0478699, Final residual = 0.000154613, No Iterations 3
GAMG:  Solving for linP, Initial residual = 0.00264982, Final residual = 1.45784e-05, No Iterations 4
GAMG:  Solving for linP, Initial residual = 0.00077093, Final residual = 5.37733e-06, No Iterations 4
Adjoint continuity errors : sum local = 1.77279e-09, global = -2.25681e-10, cumulative = 2.13158e-09
GAMG:  Solving for linP, Initial residual = 0.00294339, Final residual = 2.00178e-05, No Iterations 3
GAMG:  Solving for linP, Initial residual = 0.000484976, Final residual = 2.30018e-06, No Iterations 4
GAMG:  Solving for linP, Initial residual = 0.00015813, Final residual = 8.88323e-07, No Iterations 4
Adjoint continuity errors : sum local = 2.92802e-10, global = 3.60691e-11, cumulative = 2.16765e-09
PIMPLE: iteration 3
DILUPBiCG:  Solving for linUx, Initial residual = 0.00114488, Final residual = 7.21933e-08, No Iterations 2
DILUPBiCG:  Solving for linUy, Initial residual = 0.00260538, Final residual = 1.42999e-07, No Iterations 2
DILUPBiCG:  Solving for linUz, Initial residual = 0.00232155, Final residual = 6.75893e-06, No Iterations 1
GAMG:  Solving for linP, Initial residual = 0.043219, Final residual = 0.00036334, No Iterations 2
GAMG:  Solving for linP, Initial residual = 0.00151661, Final residual = 1.01245e-05, No Iterations 4
GAMG:  Solving for linP, Initial residual = 0.000525807, Final residual = 4.87551e-06, No Iterations 3
Adjoint continuity errors : sum local = 1.64673e-09, global = -1.64043e-10, cumulative = 2.0036e-09
GAMG:  Solving for linP, Initial residual = 0.00207781, Final residual = 6.70383e-06, No Iterations 3
GAMG:  Solving for linP, Initial residual = 0.000179876, Final residual = 6.98807e-07, No Iterations 4
GAMG:  Solving for linP, Initial residual = 6.5917e-05, Final residual = 3.34269e-07, No Iterations 4
Adjoint continuity errors : sum local = 1.13184e-10, global = -5.39594e-12, cumulative = 1.99821e-09
ExecutionTime = 12.7 s  ClockTime = 12 s

End

