/*---------------------------------------------------------------------------*\
| =========                 |                                                 |
| \\      /  F ield         | OpenFOAM: The Open Source CFD Toolbox           |
|  \\    /   O peration     | Version:  2.3.1                                 |
|   \\  /    A nd           | Web:      www.OpenFOAM.org                      |
|    \\/     M anipulation  |                                                 |
\*---------------------------------------------------------------------------*/
Build  : 2.3.1-262087cdf8db
Exec   : linearisedPimpleDyMFoam
Date   : Jun 05 2023
Time   : 19:25:31
Host   : "jcosson-VirtualBox"
PID    : 5101
Case   : /home/jcosson/workspace/henersj_shootingdata/calcs/moderate_deformed/primal/56_intervals_05-06-23/sweep41/interval54
nProcs : 1
sigFpe : Enabling floating point exception trapping (FOAM_SIGFPE).
fileModificationChecking : Monitoring run-time modified files using timeStampMaster
allowSystemOperations : Allowing user-supplied system call operations

// * * * * * * * * * * * * * * * * * * * * * * * * * * * * * * * * * * * * * //
Create time

Create mesh for time = 0.495

Selecting dynamicFvMesh dynamicMotionSolverFvMesh
Selecting motion solver: displacementLaplacian
Selecting motion diffusion: quadratic
Selecting motion diffusion: quadratic
Selecting motion diffusion: inverseDistance
Reading field linP

Reading field linU

starte createPhia.H

Reading/calculating face flux field linPhi

Adjungierte Interpolation durchgefuehrt

createPhia.H verlassen

setRefCell ausgefuehrt

No finite volume options present


PIMPLE: no residual control data found. Calculations will employ 3 corrector loops


Starting time loop

Time = 0.496

Reading field p

Reading field U

Read primal fluxes 

Reading primal face flux fields phi/meshPhi

Created primal fluxes 

Selecting incompressible transport model Newtonian
singlePhaseTransportModel gewaehlt 

Selecting turbulence model type RASModel
Selecting RAS turbulence model kOmegaSST
bounding k, min: 0 max: 0.000519768 average: 0.000144727
kOmegaSSTCoeffs
{
    alphaK1         0.85034;
    alphaK2         1;
    alphaOmega1     0.5;
    alphaOmega2     0.85616;
    gamma1          0.5532;
    gamma2          0.4403;
    beta1           0.075;
    beta2           0.0828;
    betaStar        0.09;
    a1              0.31;
    c1              10;
    Cmu             0.09;
    b1              1;
    F3              false;
}

autoPtr ausgefuehrt

Reading/calculating face velocity Uf

Init adjoint face velocity linUf

Courant Number mean: 0.101314 max: 0.219813
Adjoint Courant Number mean: 0.000247777 max: 0.00277484
GAMG:  Solving for cellDisplacementx, Initial residual = 0, Final residual = 0, No Iterations 0
GAMG:  Solving for cellDisplacementy, Initial residual = 0, Final residual = 0, No Iterations 0
GAMG:  Solving for cellDisplacementz, Initial residual = 0, Final residual = 0, No Iterations 0
PIMPLE: iteration 1
DILUPBiCG:  Solving for linUx, Initial residual = 0.0103176, Final residual = 2.91361e-05, No Iterations 1
DILUPBiCG:  Solving for linUy, Initial residual = 0.0207106, Final residual = 3.881e-05, No Iterations 1
DILUPBiCG:  Solving for linUz, Initial residual = 0.0429696, Final residual = 7.93082e-05, No Iterations 1
GAMG:  Solving for linP, Initial residual = 1, Final residual = 0.00595684, No Iterations 3
GAMG:  Solving for linP, Initial residual = 0.0346736, Final residual = 0.000139195, No Iterations 5
GAMG:  Solving for linP, Initial residual = 0.0120136, Final residual = 0.000119567, No Iterations 3
Adjoint continuity errors : sum local = 7.97789e-09, global = 1.1618e-10, cumulative = 1.1618e-10
GAMG:  Solving for linP, Initial residual = 0.0225125, Final residual = 0.0001373, No Iterations 4
GAMG:  Solving for linP, Initial residual = 0.00620255, Final residual = 4.01928e-05, No Iterations 4
GAMG:  Solving for linP, Initial residual = 0.00234177, Final residual = 2.06639e-05, No Iterations 4
Adjoint continuity errors : sum local = 1.34282e-09, global = -4.58383e-11, cumulative = 7.0342e-11
PIMPLE: iteration 2
DILUPBiCG:  Solving for linUx, Initial residual = 0.00110604, Final residual = 6.34639e-06, No Iterations 1
DILUPBiCG:  Solving for linUy, Initial residual = 0.00234723, Final residual = 9.47632e-06, No Iterations 1
DILUPBiCG:  Solving for linUz, Initial residual = 0.00340226, Final residual = 1.06216e-05, No Iterations 1
GAMG:  Solving for linP, Initial residual = 0.0285194, Final residual = 0.000165995, No Iterations 3
GAMG:  Solving for linP, Initial residual = 0.00383768, Final residual = 2.84864e-05, No Iterations 4
GAMG:  Solving for linP, Initial residual = 0.00123226, Final residual = 4.0843e-06, No Iterations 4
Adjoint continuity errors : sum local = 2.70321e-10, global = -9.57833e-11, cumulative = -2.54413e-11
GAMG:  Solving for linP, Initial residual = 0.00132399, Final residual = 9.56826e-06, No Iterations 4
GAMG:  Solving for linP, Initial residual = 0.000509747, Final residual = 4.32892e-06, No Iterations 4
GAMG:  Solving for linP, Initial residual = 0.000186487, Final residual = 6.01081e-07, No Iterations 5
Adjoint continuity errors : sum local = 3.97688e-11, global = 3.55633e-12, cumulative = -2.1885e-11
PIMPLE: iteration 3
DILUPBiCG:  Solving for linUx, Initial residual = 0.000102881, Final residual = 6.32946e-07, No Iterations 1
DILUPBiCG:  Solving for linUy, Initial residual = 0.00019623, Final residual = 1.28991e-06, No Iterations 1
DILUPBiCG:  Solving for linUz, Initial residual = 0.000232559, Final residual = 1.63325e-06, No Iterations 1
GAMG:  Solving for linP, Initial residual = 0.0360965, Final residual = 9.48103e-05, No Iterations 3
GAMG:  Solving for linP, Initial residual = 0.00247574, Final residual = 1.32912e-05, No Iterations 4
GAMG:  Solving for linP, Initial residual = 0.000869767, Final residual = 5.3679e-06, No Iterations 4
Adjoint continuity errors : sum local = 3.71236e-10, global = -2.18359e-12, cumulative = -2.40686e-11
GAMG:  Solving for linP, Initial residual = 0.000991223, Final residual = 5.98086e-06, No Iterations 3
GAMG:  Solving for linP, Initial residual = 0.000225307, Final residual = 2.23129e-06, No Iterations 3
GAMG:  Solving for linP, Initial residual = 8.93325e-05, Final residual = 5.71108e-07, No Iterations 4
Adjoint continuity errors : sum local = 3.95403e-11, global = 1.10326e-12, cumulative = -2.29653e-11
ExecutionTime = 12.63 s  ClockTime = 12 s

End

