/*---------------------------------------------------------------------------*\
| =========                 |                                                 |
| \\      /  F ield         | OpenFOAM: The Open Source CFD Toolbox           |
|  \\    /   O peration     | Version:  2.3.1                                 |
|   \\  /    A nd           | Web:      www.OpenFOAM.org                      |
|    \\/     M anipulation  |                                                 |
\*---------------------------------------------------------------------------*/
Build  : 2.3.1-262087cdf8db
Exec   : linearisedPimpleDyMFoam
Date   : Jun 05 2023
Time   : 19:09:45
Host   : "jcosson-VirtualBox"
PID    : 31904
Case   : /home/jcosson/workspace/henersj_shootingdata/calcs/moderate_deformed/primal/56_intervals_05-06-23/sweep31/interval37
nProcs : 1
sigFpe : Enabling floating point exception trapping (FOAM_SIGFPE).
fileModificationChecking : Monitoring run-time modified files using timeStampMaster
allowSystemOperations : Allowing user-supplied system call operations

// * * * * * * * * * * * * * * * * * * * * * * * * * * * * * * * * * * * * * //
Create time

Create mesh for time = 0.464

Selecting dynamicFvMesh dynamicMotionSolverFvMesh
Selecting motion solver: displacementLaplacian
Selecting motion diffusion: quadratic
Selecting motion diffusion: quadratic
Selecting motion diffusion: inverseDistance
Reading field linP

Reading field linU

starte createPhia.H

Reading/calculating face flux field linPhi

Adjungierte Interpolation durchgefuehrt

createPhia.H verlassen

setRefCell ausgefuehrt

No finite volume options present


PIMPLE: no residual control data found. Calculations will employ 3 corrector loops


Starting time loop

Time = 0.465

Reading field p

Reading field U

Read primal fluxes 

Reading primal face flux fields phi/meshPhi

Created primal fluxes 

Selecting incompressible transport model Newtonian
singlePhaseTransportModel gewaehlt 

Selecting turbulence model type RASModel
Selecting RAS turbulence model kOmegaSST
kOmegaSSTCoeffs
{
    alphaK1         0.85034;
    alphaK2         1;
    alphaOmega1     0.5;
    alphaOmega2     0.85616;
    gamma1          0.5532;
    gamma2          0.4403;
    beta1           0.075;
    beta2           0.0828;
    betaStar        0.09;
    a1              0.31;
    c1              10;
    Cmu             0.09;
    b1              1;
    F3              false;
}

autoPtr ausgefuehrt

Reading/calculating face velocity Uf

Init adjoint face velocity linUf

Courant Number mean: 0.242423 max: 0.539122
Adjoint Courant Number mean: 0.000243697 max: 0.00335719
GAMG:  Solving for cellDisplacementx, Initial residual = 0, Final residual = 0, No Iterations 0
GAMG:  Solving for cellDisplacementy, Initial residual = 0, Final residual = 0, No Iterations 0
GAMG:  Solving for cellDisplacementz, Initial residual = 0, Final residual = 0, No Iterations 0
PIMPLE: iteration 1
DILUPBiCG:  Solving for linUx, Initial residual = 0.0391547, Final residual = 0.000143222, No Iterations 1
DILUPBiCG:  Solving for linUy, Initial residual = 0.0783397, Final residual = 0.000218892, No Iterations 1
DILUPBiCG:  Solving for linUz, Initial residual = 0.154222, Final residual = 0.000364804, No Iterations 1
GAMG:  Solving for linP, Initial residual = 1, Final residual = 0.00823425, No Iterations 2
GAMG:  Solving for linP, Initial residual = 0.0118537, Final residual = 5.55068e-05, No Iterations 4
GAMG:  Solving for linP, Initial residual = 0.00382599, Final residual = 3.1372e-05, No Iterations 3
Adjoint continuity errors : sum local = 1.19575e-08, global = -2.07197e-10, cumulative = -2.07197e-10
GAMG:  Solving for linP, Initial residual = 0.0424713, Final residual = 0.000249548, No Iterations 3
GAMG:  Solving for linP, Initial residual = 0.00373421, Final residual = 2.27608e-05, No Iterations 4
GAMG:  Solving for linP, Initial residual = 0.00129259, Final residual = 7.84114e-06, No Iterations 4
Adjoint continuity errors : sum local = 2.82566e-09, global = 1.03349e-10, cumulative = -1.03847e-10
PIMPLE: iteration 2
DILUPBiCG:  Solving for linUx, Initial residual = 0.00376851, Final residual = 3.06012e-05, No Iterations 1
DILUPBiCG:  Solving for linUy, Initial residual = 0.00753219, Final residual = 3.99165e-05, No Iterations 1
DILUPBiCG:  Solving for linUz, Initial residual = 0.012229, Final residual = 3.58454e-05, No Iterations 1
GAMG:  Solving for linP, Initial residual = 0.0340582, Final residual = 9.6126e-05, No Iterations 3
GAMG:  Solving for linP, Initial residual = 0.00163609, Final residual = 1.18253e-05, No Iterations 3
GAMG:  Solving for linP, Initial residual = 0.000474793, Final residual = 4.72727e-06, No Iterations 3
Adjoint continuity errors : sum local = 1.76539e-09, global = 3.2737e-11, cumulative = -7.11103e-11
GAMG:  Solving for linP, Initial residual = 0.00208116, Final residual = 1.20713e-05, No Iterations 3
GAMG:  Solving for linP, Initial residual = 0.000321562, Final residual = 2.55334e-06, No Iterations 3
GAMG:  Solving for linP, Initial residual = 0.000101882, Final residual = 4.499e-07, No Iterations 4
Adjoint continuity errors : sum local = 1.67795e-10, global = 2.08614e-11, cumulative = -5.0249e-11
PIMPLE: iteration 3
DILUPBiCG:  Solving for linUx, Initial residual = 0.000621762, Final residual = 4.10271e-06, No Iterations 1
DILUPBiCG:  Solving for linUy, Initial residual = 0.00118938, Final residual = 9.36972e-06, No Iterations 1
DILUPBiCG:  Solving for linUz, Initial residual = 0.00178741, Final residual = 1.7133e-07, No Iterations 2
GAMG:  Solving for linP, Initial residual = 0.0383552, Final residual = 0.000253499, No Iterations 2
GAMG:  Solving for linP, Initial residual = 0.00113894, Final residual = 1.00005e-05, No Iterations 3
GAMG:  Solving for linP, Initial residual = 0.000374805, Final residual = 1.35238e-06, No Iterations 4
Adjoint continuity errors : sum local = 5.22221e-10, global = 6.90197e-11, cumulative = 1.87707e-11
GAMG:  Solving for linP, Initial residual = 0.00232717, Final residual = 9.82417e-06, No Iterations 3
GAMG:  Solving for linP, Initial residual = 0.000176231, Final residual = 1.55488e-06, No Iterations 3
GAMG:  Solving for linP, Initial residual = 5.88957e-05, Final residual = 6.18671e-07, No Iterations 3
Adjoint continuity errors : sum local = 2.39679e-10, global = 5.77195e-12, cumulative = 2.45426e-11
ExecutionTime = 12.03 s  ClockTime = 12 s

Time = 0.466

Reading field p

Reading field U

Read primal fluxes 

Reading primal face flux fields phi/meshPhi

Created primal fluxes 

Selecting incompressible transport model Newtonian
singlePhaseTransportModel gewaehlt 

Selecting turbulence model type RASModel
Selecting RAS turbulence model kOmegaSST
kOmegaSSTCoeffs
{
    alphaK1         0.85034;
    alphaK2         1;
    alphaOmega1     0.5;
    alphaOmega2     0.85616;
    gamma1          0.5532;
    gamma2          0.4403;
    beta1           0.075;
    beta2           0.0828;
    betaStar        0.09;
    a1              0.31;
    c1              10;
    Cmu             0.09;
    b1              1;
    F3              false;
}

autoPtr ausgefuehrt

Reading/calculating face velocity Uf

Init adjoint face velocity linUf

Courant Number mean: 0.237694 max: 0.528476
Adjoint Courant Number mean: 0.00024483 max: 0.00617439
GAMG:  Solving for cellDisplacementx, Initial residual = 0, Final residual = 0, No Iterations 0
GAMG:  Solving for cellDisplacementy, Initial residual = 0, Final residual = 0, No Iterations 0
GAMG:  Solving for cellDisplacementz, Initial residual = 0, Final residual = 0, No Iterations 0
PIMPLE: iteration 1
DILUPBiCG:  Solving for linUx, Initial residual = 0.0255967, Final residual = 0.000100972, No Iterations 1
DILUPBiCG:  Solving for linUy, Initial residual = 0.0529875, Final residual = 0.000147383, No Iterations 1
DILUPBiCG:  Solving for linUz, Initial residual = 0.0826967, Final residual = 0.000193382, No Iterations 1
GAMG:  Solving for linP, Initial residual = 0.271878, Final residual = 0.00200205, No Iterations 2
GAMG:  Solving for linP, Initial residual = 0.00495619, Final residual = 2.60774e-05, No Iterations 4
GAMG:  Solving for linP, Initial residual = 0.00147764, Final residual = 1.2289e-05, No Iterations 3
Adjoint continuity errors : sum local = 7.11636e-09, global = -1.67327e-10, cumulative = -1.42784e-10
GAMG:  Solving for linP, Initial residual = 0.0110563, Final residual = 5.7608e-05, No Iterations 3
GAMG:  Solving for linP, Initial residual = 0.00101928, Final residual = 5.48067e-06, No Iterations 4
GAMG:  Solving for linP, Initial residual = 0.000318048, Final residual = 2.59466e-06, No Iterations 3
Adjoint continuity errors : sum local = 1.48313e-09, global = -7.10288e-12, cumulative = -1.49887e-10
PIMPLE: iteration 2
DILUPBiCG:  Solving for linUx, Initial residual = 0.00352742, Final residual = 3.81701e-05, No Iterations 1
DILUPBiCG:  Solving for linUy, Initial residual = 0.00670092, Final residual = 3.32251e-05, No Iterations 1
DILUPBiCG:  Solving for linUz, Initial residual = 0.00998391, Final residual = 2.64856e-05, No Iterations 1
GAMG:  Solving for linP, Initial residual = 0.0166252, Final residual = 7.44824e-05, No Iterations 3
GAMG:  Solving for linP, Initial residual = 0.000792261, Final residual = 6.18166e-06, No Iterations 3
GAMG:  Solving for linP, Initial residual = 0.000237589, Final residual = 8.84374e-07, No Iterations 4
Adjoint continuity errors : sum local = 5.12877e-10, global = 1.1636e-10, cumulative = -3.35269e-11
GAMG:  Solving for linP, Initial residual = 0.000963816, Final residual = 5.0725e-06, No Iterations 3
GAMG:  Solving for linP, Initial residual = 0.000135796, Final residual = 1.1512e-06, No Iterations 3
GAMG:  Solving for linP, Initial residual = 4.35806e-05, Final residual = 8.08263e-07, No Iterations 3
Adjoint continuity errors : sum local = 4.68662e-10, global = -3.16935e-11, cumulative = -6.52204e-11
PIMPLE: iteration 3
DILUPBiCG:  Solving for linUx, Initial residual = 0.000585252, Final residual = 3.3129e-06, No Iterations 1
DILUPBiCG:  Solving for linUy, Initial residual = 0.00108572, Final residual = 5.93972e-06, No Iterations 1
DILUPBiCG:  Solving for linUz, Initial residual = 0.0015641, Final residual = 5.72846e-06, No Iterations 1
GAMG:  Solving for linP, Initial residual = 0.0417178, Final residual = 0.00039046, No Iterations 2
GAMG:  Solving for linP, Initial residual = 0.0010491, Final residual = 4.1901e-06, No Iterations 4
GAMG:  Solving for linP, Initial residual = 0.000313536, Final residual = 2.2621e-06, No Iterations 3
Adjoint continuity errors : sum local = 1.3456e-09, global = 2.24332e-11, cumulative = -4.27872e-11
GAMG:  Solving for linP, Initial residual = 0.00204331, Final residual = 8.83617e-06, No Iterations 3
GAMG:  Solving for linP, Initial residual = 0.000150036, Final residual = 1.31571e-06, No Iterations 3
GAMG:  Solving for linP, Initial residual = 5.12228e-05, Final residual = 7.60169e-07, No Iterations 3
Adjoint continuity errors : sum local = 4.53297e-10, global = -2.27794e-11, cumulative = -6.55667e-11
ExecutionTime = 21.31 s  ClockTime = 22 s

End

