/*---------------------------------------------------------------------------*\
| =========                 |                                                 |
| \\      /  F ield         | OpenFOAM: The Open Source CFD Toolbox           |
|  \\    /   O peration     | Version:  2.3.1                                 |
|   \\  /    A nd           | Web:      www.OpenFOAM.org                      |
|    \\/     M anipulation  |                                                 |
\*---------------------------------------------------------------------------*/
Build  : 2.3.1-262087cdf8db
Exec   : linearisedPimpleDyMFoam
Date   : Jun 05 2023
Time   : 17:59:09
Host   : "jcosson-VirtualBox"
PID    : 8093
Case   : /home/jcosson/workspace/henersj_shootingdata/calcs/moderate_deformed/primal/56_intervals_05-06-23/sweep4/interval7
nProcs : 1
sigFpe : Enabling floating point exception trapping (FOAM_SIGFPE).
fileModificationChecking : Monitoring run-time modified files using timeStampMaster
allowSystemOperations : Allowing user-supplied system call operations

// * * * * * * * * * * * * * * * * * * * * * * * * * * * * * * * * * * * * * //
Create time

Create mesh for time = 0.411

Selecting dynamicFvMesh dynamicMotionSolverFvMesh
Selecting motion solver: displacementLaplacian
Selecting motion diffusion: quadratic
Selecting motion diffusion: quadratic
Selecting motion diffusion: inverseDistance
Reading field linP

Reading field linU

starte createPhia.H

Reading/calculating face flux field linPhi

Adjungierte Interpolation durchgefuehrt

createPhia.H verlassen

setRefCell ausgefuehrt

No finite volume options present


PIMPLE: no residual control data found. Calculations will employ 3 corrector loops


Starting time loop

Time = 0.412

Reading field p

Reading field U

Read primal fluxes 

Reading primal face flux fields phi/meshPhi

Created primal fluxes 

Selecting incompressible transport model Newtonian
singlePhaseTransportModel gewaehlt 

Selecting turbulence model type RASModel
Selecting RAS turbulence model kOmegaSST
kOmegaSSTCoeffs
{
    alphaK1         0.85034;
    alphaK2         1;
    alphaOmega1     0.5;
    alphaOmega2     0.85616;
    gamma1          0.5532;
    gamma2          0.4403;
    beta1           0.075;
    beta2           0.0828;
    betaStar        0.09;
    a1              0.31;
    c1              10;
    Cmu             0.09;
    b1              1;
    F3              false;
}

autoPtr ausgefuehrt

Reading/calculating face velocity Uf

Init adjoint face velocity linUf

Courant Number mean: 0.120734 max: 0.263264
Adjoint Courant Number mean: 0.000300719 max: 0.0106424
GAMG:  Solving for cellDisplacementx, Initial residual = 0, Final residual = 0, No Iterations 0
GAMG:  Solving for cellDisplacementy, Initial residual = 0, Final residual = 0, No Iterations 0
GAMG:  Solving for cellDisplacementz, Initial residual = 0, Final residual = 0, No Iterations 0
PIMPLE: iteration 1
DILUPBiCG:  Solving for linUx, Initial residual = 0.036536, Final residual = 5.9154e-05, No Iterations 1
DILUPBiCG:  Solving for linUy, Initial residual = 0.0688739, Final residual = 7.25088e-05, No Iterations 1
DILUPBiCG:  Solving for linUz, Initial residual = 0.0751592, Final residual = 9.43123e-05, No Iterations 1
GAMG:  Solving for linP, Initial residual = 1, Final residual = 0.0042915, No Iterations 3
GAMG:  Solving for linP, Initial residual = 0.0296566, Final residual = 0.000283709, No Iterations 4
GAMG:  Solving for linP, Initial residual = 0.0117409, Final residual = 0.000109192, No Iterations 5
Adjoint continuity errors : sum local = 5.60202e-08, global = 2.53839e-08, cumulative = 2.53839e-08
GAMG:  Solving for linP, Initial residual = 0.0153865, Final residual = 9.10795e-05, No Iterations 4
GAMG:  Solving for linP, Initial residual = 0.00466675, Final residual = 2.25937e-05, No Iterations 4
GAMG:  Solving for linP, Initial residual = 0.00137063, Final residual = 7.29866e-06, No Iterations 4
Adjoint continuity errors : sum local = 3.73209e-09, global = 7.22231e-10, cumulative = 2.61062e-08
PIMPLE: iteration 2
DILUPBiCG:  Solving for linUx, Initial residual = 0.0144737, Final residual = 6.48891e-05, No Iterations 1
DILUPBiCG:  Solving for linUy, Initial residual = 0.0212425, Final residual = 5.37294e-05, No Iterations 1
DILUPBiCG:  Solving for linUz, Initial residual = 0.0227955, Final residual = 4.46903e-05, No Iterations 1
GAMG:  Solving for linP, Initial residual = 0.0272199, Final residual = 0.000188469, No Iterations 3
GAMG:  Solving for linP, Initial residual = 0.00450636, Final residual = 3.3978e-05, No Iterations 4
GAMG:  Solving for linP, Initial residual = 0.00135418, Final residual = 1.2457e-05, No Iterations 8
Adjoint continuity errors : sum local = 6.34137e-09, global = 1.36894e-09, cumulative = 2.74751e-08
GAMG:  Solving for linP, Initial residual = 0.00145946, Final residual = 9.68022e-06, No Iterations 4
GAMG:  Solving for linP, Initial residual = 0.000619678, Final residual = 3.01803e-06, No Iterations 4
GAMG:  Solving for linP, Initial residual = 0.00019132, Final residual = 1.17163e-06, No Iterations 4
Adjoint continuity errors : sum local = 5.9597e-10, global = -4.24509e-11, cumulative = 2.74327e-08
PIMPLE: iteration 3
DILUPBiCG:  Solving for linUx, Initial residual = 0.000806418, Final residual = 4.01929e-06, No Iterations 1
DILUPBiCG:  Solving for linUy, Initial residual = 0.00141768, Final residual = 3.62818e-06, No Iterations 1
DILUPBiCG:  Solving for linUz, Initial residual = 0.00138114, Final residual = 8.0777e-06, No Iterations 1
GAMG:  Solving for linP, Initial residual = 0.0411037, Final residual = 0.000128495, No Iterations 3
GAMG:  Solving for linP, Initial residual = 0.00242265, Final residual = 1.19852e-05, No Iterations 4
GAMG:  Solving for linP, Initial residual = 0.00103669, Final residual = 5.83267e-06, No Iterations 4
Adjoint continuity errors : sum local = 3.04479e-09, global = 3.46083e-10, cumulative = 2.77787e-08
GAMG:  Solving for linP, Initial residual = 0.00101797, Final residual = 5.44303e-06, No Iterations 3
GAMG:  Solving for linP, Initial residual = 0.000205213, Final residual = 9.61668e-07, No Iterations 4
GAMG:  Solving for linP, Initial residual = 8.24258e-05, Final residual = 7.51388e-07, No Iterations 3
Adjoint continuity errors : sum local = 3.92512e-10, global = -1.55467e-11, cumulative = 2.77632e-08
ExecutionTime = 12.17 s  ClockTime = 13 s

Time = 0.413

Reading field p

Reading field U

Read primal fluxes 

Reading primal face flux fields phi/meshPhi

Created primal fluxes 

Selecting incompressible transport model Newtonian
singlePhaseTransportModel gewaehlt 

Selecting turbulence model type RASModel
Selecting RAS turbulence model kOmegaSST
kOmegaSSTCoeffs
{
    alphaK1         0.85034;
    alphaK2         1;
    alphaOmega1     0.5;
    alphaOmega2     0.85616;
    gamma1          0.5532;
    gamma2          0.4403;
    beta1           0.075;
    beta2           0.0828;
    betaStar        0.09;
    a1              0.31;
    c1              10;
    Cmu             0.09;
    b1              1;
    F3              false;
}

autoPtr ausgefuehrt

Reading/calculating face velocity Uf

Init adjoint face velocity linUf

Courant Number mean: 0.124809 max: 0.271536
Adjoint Courant Number mean: 0.000210366 max: 0.0141692
GAMG:  Solving for cellDisplacementx, Initial residual = 0, Final residual = 0, No Iterations 0
GAMG:  Solving for cellDisplacementy, Initial residual = 0, Final residual = 0, No Iterations 0
GAMG:  Solving for cellDisplacementz, Initial residual = 0, Final residual = 0, No Iterations 0
PIMPLE: iteration 1
DILUPBiCG:  Solving for linUx, Initial residual = 0.102459, Final residual = 0.000246017, No Iterations 1
DILUPBiCG:  Solving for linUy, Initial residual = 0.162642, Final residual = 0.000281811, No Iterations 1
DILUPBiCG:  Solving for linUz, Initial residual = 0.180663, Final residual = 0.000274937, No Iterations 1
GAMG:  Solving for linP, Initial residual = 0.263008, Final residual = 0.00144488, No Iterations 3
GAMG:  Solving for linP, Initial residual = 0.0203197, Final residual = 0.000176868, No Iterations 5
GAMG:  Solving for linP, Initial residual = 0.00531831, Final residual = 4.45306e-05, No Iterations 10
Adjoint continuity errors : sum local = 2.77976e-08, global = 7.75886e-09, cumulative = 3.55221e-08
GAMG:  Solving for linP, Initial residual = 0.00812802, Final residual = 5.61998e-05, No Iterations 4
GAMG:  Solving for linP, Initial residual = 0.00295086, Final residual = 2.91409e-05, No Iterations 3
GAMG:  Solving for linP, Initial residual = 0.000792788, Final residual = 6.47487e-06, No Iterations 4
Adjoint continuity errors : sum local = 4.02465e-09, global = -5.35005e-10, cumulative = 3.4987e-08
PIMPLE: iteration 2
DILUPBiCG:  Solving for linUx, Initial residual = 0.00500509, Final residual = 1.11561e-05, No Iterations 1
DILUPBiCG:  Solving for linUy, Initial residual = 0.00912637, Final residual = 1.35727e-05, No Iterations 1
DILUPBiCG:  Solving for linUz, Initial residual = 0.00930712, Final residual = 1.50824e-05, No Iterations 1
GAMG:  Solving for linP, Initial residual = 0.0139643, Final residual = 4.49941e-05, No Iterations 3
GAMG:  Solving for linP, Initial residual = 0.000761797, Final residual = 5.84197e-06, No Iterations 4
GAMG:  Solving for linP, Initial residual = 0.000216071, Final residual = 1.93663e-06, No Iterations 4
Adjoint continuity errors : sum local = 1.20397e-09, global = -4.47109e-10, cumulative = 3.45399e-08
GAMG:  Solving for linP, Initial residual = 0.000477741, Final residual = 1.77913e-06, No Iterations 4
GAMG:  Solving for linP, Initial residual = 8.92666e-05, Final residual = 5.85727e-07, No Iterations 4
GAMG:  Solving for linP, Initial residual = 2.80562e-05, Final residual = 4.96216e-07, No Iterations 3
Adjoint continuity errors : sum local = 3.08472e-10, global = 2.45875e-11, cumulative = 3.45645e-08
PIMPLE: iteration 3
DILUPBiCG:  Solving for linUx, Initial residual = 0.000601116, Final residual = 3.57171e-06, No Iterations 1
DILUPBiCG:  Solving for linUy, Initial residual = 0.00108389, Final residual = 2.38432e-06, No Iterations 1
DILUPBiCG:  Solving for linUz, Initial residual = 0.0010966, Final residual = 4.61171e-06, No Iterations 1
GAMG:  Solving for linP, Initial residual = 0.0448196, Final residual = 0.000144544, No Iterations 3
GAMG:  Solving for linP, Initial residual = 0.0010214, Final residual = 4.51763e-06, No Iterations 4
GAMG:  Solving for linP, Initial residual = 0.00030188, Final residual = 1.89775e-06, No Iterations 4
Adjoint continuity errors : sum local = 1.2003e-09, global = 3.14616e-10, cumulative = 3.48791e-08
GAMG:  Solving for linP, Initial residual = 0.000879052, Final residual = 4.51872e-06, No Iterations 3
GAMG:  Solving for linP, Initial residual = 7.21704e-05, Final residual = 9.04769e-07, No Iterations 3
GAMG:  Solving for linP, Initial residual = 2.48214e-05, Final residual = 3.56639e-07, No Iterations 3
Adjoint continuity errors : sum local = 2.25768e-10, global = 1.53054e-11, cumulative = 3.48944e-08
ExecutionTime = 22.66 s  ClockTime = 23 s

End

