/*---------------------------------------------------------------------------*\
| =========                 |                                                 |
| \\      /  F ield         | OpenFOAM: The Open Source CFD Toolbox           |
|  \\    /   O peration     | Version:  2.3.1                                 |
|   \\  /    A nd           | Web:      www.OpenFOAM.org                      |
|    \\/     M anipulation  |                                                 |
\*---------------------------------------------------------------------------*/
Build  : 2.3.1-262087cdf8db
Exec   : pimpleDyMFoam
Date   : Jun 05 2023
Time   : 17:57:50
Host   : "jcosson-VirtualBox"
PID    : 7100
Case   : /home/jcosson/workspace/henersj_shootingdata/calcs/moderate_deformed/primal/56_intervals_05-06-23/sweep4/interval38
nProcs : 1
sigFpe : Enabling floating point exception trapping (FOAM_SIGFPE).
fileModificationChecking : Monitoring run-time modified files using timeStampMaster
allowSystemOperations : Allowing user-supplied system call operations

// * * * * * * * * * * * * * * * * * * * * * * * * * * * * * * * * * * * * * //
Create time

Create mesh for time = 0.466

Selecting dynamicFvMesh dynamicMotionSolverFvMesh
Selecting motion solver: displacementLaplacian
Selecting motion diffusion: quadratic
Selecting motion diffusion: quadratic
Selecting motion diffusion: inverseDistance

PIMPLE: no residual control data found. Calculations will employ 3 corrector loops

Reading field p

Reading field U

Reading/calculating face flux field phi

Selecting incompressible transport model Newtonian
Selecting turbulence model type RASModel
Selecting RAS turbulence model kOmegaSST
kOmegaSSTCoeffs
{
    alphaK1         0.85034;
    alphaK2         1;
    alphaOmega1     0.5;
    alphaOmega2     0.85616;
    gamma1          0.5532;
    gamma2          0.4403;
    beta1           0.075;
    beta2           0.0828;
    betaStar        0.09;
    a1              0.31;
    c1              10;
    Cmu             0.09;
    b1              1;
    F3              false;
}

Reading/calculating face velocity Uf

No finite volume options present

Courant Number mean: 0.237464 max: 0.532773

Starting time loop

Courant Number mean: 0.237464 max: 0.532773
Time = 0.467

GAMG:  Solving for cellDisplacementx, Initial residual = 0, Final residual = 0, No Iterations 0
GAMG:  Solving for cellDisplacementy, Initial residual = 0, Final residual = 0, No Iterations 0
GAMG:  Solving for cellDisplacementz, Initial residual = 0, Final residual = 0, No Iterations 0
PIMPLE: iteration 1
DILUPBiCG:  Solving for Ux, Initial residual = 0.0395383, Final residual = 0.000164037, No Iterations 1
DILUPBiCG:  Solving for Uy, Initial residual = 0.00646558, Final residual = 1.58759e-05, No Iterations 1
DILUPBiCG:  Solving for Uz, Initial residual = 0.0294593, Final residual = 7.72591e-05, No Iterations 1
GAMG:  Solving for p, Initial residual = 0.144205, Final residual = 0.00123838, No Iterations 6
GAMG:  Solving for p, Initial residual = 0.0180514, Final residual = 0.000157148, No Iterations 20
GAMG:  Solving for p, Initial residual = 0.00785555, Final residual = 7.46584e-05, No Iterations 8
time step continuity errors : sum local = 9.17277e-07, global = 2.08807e-07, cumulative = 2.08807e-07
GAMG:  Solving for p, Initial residual = 0.0592662, Final residual = 0.000418149, No Iterations 6
GAMG:  Solving for p, Initial residual = 0.0089614, Final residual = 7.78213e-05, No Iterations 18
GAMG:  Solving for p, Initial residual = 0.00404594, Final residual = 3.89601e-05, No Iterations 8
time step continuity errors : sum local = 4.7818e-07, global = 1.0868e-07, cumulative = 3.17487e-07
PIMPLE: iteration 2
DILUPBiCG:  Solving for Ux, Initial residual = 0.0119977, Final residual = 6.77914e-05, No Iterations 1
DILUPBiCG:  Solving for Uy, Initial residual = 0.00203252, Final residual = 5.03154e-06, No Iterations 1
DILUPBiCG:  Solving for Uz, Initial residual = 0.0043634, Final residual = 1.36322e-05, No Iterations 1
GAMG:  Solving for p, Initial residual = 0.0604842, Final residual = 0.000475515, No Iterations 4
GAMG:  Solving for p, Initial residual = 0.0105593, Final residual = 9.67616e-05, No Iterations 16
GAMG:  Solving for p, Initial residual = 0.00514442, Final residual = 4.91983e-05, No Iterations 7
time step continuity errors : sum local = 5.10912e-07, global = 1.67703e-07, cumulative = 4.8519e-07
GAMG:  Solving for p, Initial residual = 0.0308183, Final residual = 0.000200694, No Iterations 4
GAMG:  Solving for p, Initial residual = 0.00517523, Final residual = 4.5678e-05, No Iterations 14
GAMG:  Solving for p, Initial residual = 0.00240999, Final residual = 2.1185e-05, No Iterations 8
time step continuity errors : sum local = 2.21405e-07, global = -7.89345e-08, cumulative = 4.06256e-07
PIMPLE: iteration 3
DILUPBiCG:  Solving for Ux, Initial residual = 0.00314424, Final residual = 1.32952e-06, No Iterations 2
DILUPBiCG:  Solving for Uy, Initial residual = 0.000527876, Final residual = 7.23146e-06, No Iterations 1
DILUPBiCG:  Solving for Uz, Initial residual = 0.00971099, Final residual = 2.78064e-06, No Iterations 2
GAMG:  Solving for p, Initial residual = 0.0401781, Final residual = 0.000338118, No Iterations 5
GAMG:  Solving for p, Initial residual = 0.0090479, Final residual = 8.67029e-05, No Iterations 15
GAMG:  Solving for p, Initial residual = 0.00432337, Final residual = 3.55458e-05, No Iterations 12
time step continuity errors : sum local = 4.14477e-07, global = -1.22757e-07, cumulative = 2.83498e-07
GAMG:  Solving for p, Initial residual = 0.00257265, Final residual = 2.37451e-05, No Iterations 20
GAMG:  Solving for p, Initial residual = 0.00146836, Final residual = 1.34207e-05, No Iterations 4
GAMG:  Solving for p, Initial residual = 0.00056453, Final residual = 9.00672e-07, No Iterations 36
time step continuity errors : sum local = 1.04864e-08, global = 3.09145e-09, cumulative = 2.8659e-07
DILUPBiCG:  Solving for omega, Initial residual = 0.00121825, Final residual = 1.97631e-06, No Iterations 1
DILUPBiCG:  Solving for k, Initial residual = 0.00518349, Final residual = 1.89792e-06, No Iterations 2
ExecutionTime = 14.84 s  ClockTime = 15 s

Courant Number mean: 0.232571 max: 0.521291
Time = 0.468

GAMG:  Solving for cellDisplacementx, Initial residual = 0, Final residual = 0, No Iterations 0
GAMG:  Solving for cellDisplacementy, Initial residual = 0, Final residual = 0, No Iterations 0
GAMG:  Solving for cellDisplacementz, Initial residual = 0, Final residual = 0, No Iterations 0
PIMPLE: iteration 1
DILUPBiCG:  Solving for Ux, Initial residual = 0.0424794, Final residual = 0.000175803, No Iterations 1
DILUPBiCG:  Solving for Uy, Initial residual = 0.00683353, Final residual = 1.65408e-05, No Iterations 1
DILUPBiCG:  Solving for Uz, Initial residual = 0.0190287, Final residual = 3.49476e-05, No Iterations 1
GAMG:  Solving for p, Initial residual = 0.128479, Final residual = 0.00112288, No Iterations 6
GAMG:  Solving for p, Initial residual = 0.0153061, Final residual = 0.00013197, No Iterations 20
GAMG:  Solving for p, Initial residual = 0.00658449, Final residual = 6.21905e-05, No Iterations 10
time step continuity errors : sum local = 7.94599e-07, global = 2.08616e-07, cumulative = 4.95206e-07
GAMG:  Solving for p, Initial residual = 0.0535872, Final residual = 0.000362398, No Iterations 6
GAMG:  Solving for p, Initial residual = 0.00762646, Final residual = 7.17908e-05, No Iterations 16
GAMG:  Solving for p, Initial residual = 0.00333185, Final residual = 2.94841e-05, No Iterations 12
time step continuity errors : sum local = 3.7486e-07, global = 1.12704e-07, cumulative = 6.0791e-07
PIMPLE: iteration 2
DILUPBiCG:  Solving for Ux, Initial residual = 0.0126178, Final residual = 7.19456e-05, No Iterations 1
DILUPBiCG:  Solving for Uy, Initial residual = 0.00215376, Final residual = 5.27793e-06, No Iterations 1
DILUPBiCG:  Solving for Uz, Initial residual = 0.00458942, Final residual = 1.76167e-05, No Iterations 1
GAMG:  Solving for p, Initial residual = 0.0542829, Final residual = 0.000470501, No Iterations 4
GAMG:  Solving for p, Initial residual = 0.00879625, Final residual = 8.23754e-05, No Iterations 16
GAMG:  Solving for p, Initial residual = 0.00399348, Final residual = 3.53372e-05, No Iterations 10
time step continuity errors : sum local = 3.79809e-07, global = -9.88486e-08, cumulative = 5.09062e-07
GAMG:  Solving for p, Initial residual = 0.0277249, Final residual = 0.00020213, No Iterations 4
GAMG:  Solving for p, Initial residual = 0.00426483, Final residual = 3.74072e-05, No Iterations 14
GAMG:  Solving for p, Initial residual = 0.00186054, Final residual = 1.65819e-05, No Iterations 10
time step continuity errors : sum local = 1.79172e-07, global = -4.60028e-08, cumulative = 4.63059e-07
PIMPLE: iteration 3
DILUPBiCG:  Solving for Ux, Initial residual = 0.00318291, Final residual = 1.44068e-06, No Iterations 2
DILUPBiCG:  Solving for Uy, Initial residual = 0.000555704, Final residual = 7.19016e-06, No Iterations 1
DILUPBiCG:  Solving for Uz, Initial residual = 0.00594354, Final residual = 2.68354e-06, No Iterations 2
GAMG:  Solving for p, Initial residual = 0.0388988, Final residual = 0.000341479, No Iterations 5
GAMG:  Solving for p, Initial residual = 0.00888702, Final residual = 8.3574e-05, No Iterations 15
GAMG:  Solving for p, Initial residual = 0.004312, Final residual = 3.66746e-05, No Iterations 10
time step continuity errors : sum local = 4.42662e-07, global = -1.15098e-07, cumulative = 3.47961e-07
GAMG:  Solving for p, Initial residual = 0.00253574, Final residual = 2.42489e-05, No Iterations 20
GAMG:  Solving for p, Initial residual = 0.00143995, Final residual = 1.26912e-05, No Iterations 4
GAMG:  Solving for p, Initial residual = 0.000556878, Final residual = 9.77848e-07, No Iterations 36
time step continuity errors : sum local = 1.17672e-08, global = 3.46663e-09, cumulative = 3.51427e-07
DILUPBiCG:  Solving for omega, Initial residual = 0.00107373, Final residual = 1.81163e-06, No Iterations 1
DILUPBiCG:  Solving for k, Initial residual = 0.00504219, Final residual = 1.8822e-06, No Iterations 2
ExecutionTime = 29.9 s  ClockTime = 30 s

End

