/*---------------------------------------------------------------------------*\
| =========                 |                                                 |
| \\      /  F ield         | OpenFOAM: The Open Source CFD Toolbox           |
|  \\    /   O peration     | Version:  2.3.1                                 |
|   \\  /    A nd           | Web:      www.OpenFOAM.org                      |
|    \\/     M anipulation  |                                                 |
\*---------------------------------------------------------------------------*/
Build  : 2.3.1-262087cdf8db
Exec   : pimpleDyMFoam
Date   : Jun 06 2023
Time   : 02:52:21
Host   : "jcosson-VirtualBox"
PID    : 11823
Case   : /home/jcosson/workspace/henersj_shootingdata/calcs/moderate_deformed/primal/100_intervals_05-06-23/sweep78/interval97
nProcs : 1
sigFpe : Enabling floating point exception trapping (FOAM_SIGFPE).
fileModificationChecking : Monitoring run-time modified files using timeStampMaster
allowSystemOperations : Allowing user-supplied system call operations

// * * * * * * * * * * * * * * * * * * * * * * * * * * * * * * * * * * * * * //
Create time

Create mesh for time = 0.496

Selecting dynamicFvMesh dynamicMotionSolverFvMesh
Selecting motion solver: displacementLaplacian
Selecting motion diffusion: quadratic
Selecting motion diffusion: quadratic
Selecting motion diffusion: inverseDistance

PIMPLE: no residual control data found. Calculations will employ 3 corrector loops

Reading field p

Reading field U

Reading/calculating face flux field phi

Selecting incompressible transport model Newtonian
Selecting turbulence model type RASModel
Selecting RAS turbulence model kOmegaSST
bounding k, min: 0 max: 0.000520232 average: 0.000144426
kOmegaSSTCoeffs
{
    alphaK1         0.85034;
    alphaK2         1;
    alphaOmega1     0.5;
    alphaOmega2     0.85616;
    gamma1          0.5532;
    gamma2          0.4403;
    beta1           0.075;
    beta2           0.0828;
    betaStar        0.09;
    a1              0.31;
    c1              10;
    Cmu             0.09;
    b1              1;
    F3              false;
}

Reading/calculating face velocity Uf

No finite volume options present

Courant Number mean: 0.101245 max: 0.218378

Starting time loop

Courant Number mean: 0.101245 max: 0.218378
Time = 0.497

GAMG:  Solving for cellDisplacementx, Initial residual = 0, Final residual = 0, No Iterations 0
GAMG:  Solving for cellDisplacementy, Initial residual = 0, Final residual = 0, No Iterations 0
GAMG:  Solving for cellDisplacementz, Initial residual = 0, Final residual = 0, No Iterations 0
PIMPLE: iteration 1
DILUPBiCG:  Solving for Ux, Initial residual = 0.025715, Final residual = 0.00010177, No Iterations 1
DILUPBiCG:  Solving for Uy, Initial residual = 0.00557274, Final residual = 1.12626e-05, No Iterations 1
DILUPBiCG:  Solving for Uz, Initial residual = 0.0084166, Final residual = 1.35571e-05, No Iterations 1
GAMG:  Solving for p, Initial residual = 0.0992675, Final residual = 0.000677285, No Iterations 3
GAMG:  Solving for p, Initial residual = 0.0136557, Final residual = 0.000125558, No Iterations 4
GAMG:  Solving for p, Initial residual = 0.00631628, Final residual = 5.71968e-05, No Iterations 7
time step continuity errors : sum local = 2.85549e-07, global = 6.89298e-08, cumulative = 6.89298e-08
GAMG:  Solving for p, Initial residual = 0.0482703, Final residual = 0.000318957, No Iterations 3
GAMG:  Solving for p, Initial residual = 0.00665895, Final residual = 5.27769e-05, No Iterations 5
GAMG:  Solving for p, Initial residual = 0.00315545, Final residual = 3.00794e-05, No Iterations 8
time step continuity errors : sum local = 1.51196e-07, global = 3.34013e-08, cumulative = 1.02331e-07
PIMPLE: iteration 2
DILUPBiCG:  Solving for Ux, Initial residual = 0.0059866, Final residual = 3.84568e-05, No Iterations 1
DILUPBiCG:  Solving for Uy, Initial residual = 0.00132091, Final residual = 2.72211e-06, No Iterations 1
DILUPBiCG:  Solving for Uz, Initial residual = 0.00298744, Final residual = 0.000246787, No Iterations 1
GAMG:  Solving for p, Initial residual = 0.0455735, Final residual = 0.000356174, No Iterations 6
GAMG:  Solving for p, Initial residual = 0.01763, Final residual = 0.000168494, No Iterations 8
GAMG:  Solving for p, Initial residual = 0.00432775, Final residual = 4.03075e-05, No Iterations 18
time step continuity errors : sum local = 1.77351e-07, global = -5.06047e-08, cumulative = 5.17264e-08
GAMG:  Solving for p, Initial residual = 0.0242777, Final residual = 0.000163288, No Iterations 6
GAMG:  Solving for p, Initial residual = 0.00905097, Final residual = 8.99505e-05, No Iterations 7
GAMG:  Solving for p, Initial residual = 0.00206799, Final residual = 1.99273e-05, No Iterations 17
time step continuity errors : sum local = 8.75272e-08, global = -2.42402e-08, cumulative = 2.74862e-08
PIMPLE: iteration 3
DILUPBiCG:  Solving for Ux, Initial residual = 0.000925039, Final residual = 9.29486e-07, No Iterations 2
DILUPBiCG:  Solving for Uy, Initial residual = 0.00022929, Final residual = 7.69427e-06, No Iterations 1
DILUPBiCG:  Solving for Uz, Initial residual = 0.00228843, Final residual = 1.71142e-06, No Iterations 2
GAMG:  Solving for p, Initial residual = 0.0617747, Final residual = 0.00041298, No Iterations 5
GAMG:  Solving for p, Initial residual = 0.0124083, Final residual = 0.000110169, No Iterations 16
GAMG:  Solving for p, Initial residual = 0.00760769, Final residual = 7.03073e-05, No Iterations 8
time step continuity errors : sum local = 3.37779e-07, global = -7.82769e-08, cumulative = -5.07907e-08
GAMG:  Solving for p, Initial residual = 0.00285339, Final residual = 2.2819e-05, No Iterations 8
GAMG:  Solving for p, Initial residual = 0.0015592, Final residual = 1.49433e-05, No Iterations 4
GAMG:  Solving for p, Initial residual = 0.000573101, Final residual = 9.6843e-07, No Iterations 29
time step continuity errors : sum local = 4.59054e-09, global = 1.38322e-09, cumulative = -4.94075e-08
DILUPBiCG:  Solving for omega, Initial residual = 0.0012827, Final residual = 6.686e-07, No Iterations 1
DILUPBiCG:  Solving for k, Initial residual = 0.00307862, Final residual = 6.96189e-07, No Iterations 2
bounding k, min: 0 max: 0.000514589 average: 0.000143784
ExecutionTime = 9.22 s  ClockTime = 9 s

End

