/*---------------------------------------------------------------------------*\
| =========                 |                                                 |
| \\      /  F ield         | OpenFOAM: The Open Source CFD Toolbox           |
|  \\    /   O peration     | Version:  2.3.1                                 |
|   \\  /    A nd           | Web:      www.OpenFOAM.org                      |
|    \\/     M anipulation  |                                                 |
\*---------------------------------------------------------------------------*/
Build  : 2.3.1-262087cdf8db
Exec   : pimpleDyMFoam
Date   : Jun 06 2023
Time   : 02:52:20
Host   : "jcosson-VirtualBox"
PID    : 11813
Case   : /home/jcosson/workspace/henersj_shootingdata/calcs/moderate_deformed/primal/100_intervals_05-06-23/sweep78/interval92
nProcs : 1
sigFpe : Enabling floating point exception trapping (FOAM_SIGFPE).
fileModificationChecking : Monitoring run-time modified files using timeStampMaster
allowSystemOperations : Allowing user-supplied system call operations

// * * * * * * * * * * * * * * * * * * * * * * * * * * * * * * * * * * * * * //
Create time

Create mesh for time = 0.491

Selecting dynamicFvMesh dynamicMotionSolverFvMesh
Selecting motion solver: displacementLaplacian
Selecting motion diffusion: quadratic
Selecting motion diffusion: quadratic
Selecting motion diffusion: inverseDistance

PIMPLE: no residual control data found. Calculations will employ 3 corrector loops

Reading field p

Reading field U

Reading/calculating face flux field phi

Selecting incompressible transport model Newtonian
Selecting turbulence model type RASModel
Selecting RAS turbulence model kOmegaSST
bounding k, min: 0 max: 0.000566894 average: 0.00014768
kOmegaSSTCoeffs
{
    alphaK1         0.85034;
    alphaK2         1;
    alphaOmega1     0.5;
    alphaOmega2     0.85616;
    gamma1          0.5532;
    gamma2          0.4403;
    beta1           0.075;
    beta2           0.0828;
    betaStar        0.09;
    a1              0.31;
    c1              10;
    Cmu             0.09;
    b1              1;
    F3              false;
}

Reading/calculating face velocity Uf

No finite volume options present

Courant Number mean: 0.112426 max: 0.242784

Starting time loop

Courant Number mean: 0.112426 max: 0.242784
Time = 0.492

GAMG:  Solving for cellDisplacementx, Initial residual = 0, Final residual = 0, No Iterations 0
GAMG:  Solving for cellDisplacementy, Initial residual = 0, Final residual = 0, No Iterations 0
GAMG:  Solving for cellDisplacementz, Initial residual = 0, Final residual = 0, No Iterations 0
PIMPLE: iteration 1
DILUPBiCG:  Solving for Ux, Initial residual = 0.0483991, Final residual = 0.000190109, No Iterations 1
DILUPBiCG:  Solving for Uy, Initial residual = 0.00995874, Final residual = 2.05336e-05, No Iterations 1
DILUPBiCG:  Solving for Uz, Initial residual = 0.0119063, Final residual = 1.18969e-05, No Iterations 1
GAMG:  Solving for p, Initial residual = 0.111854, Final residual = 0.000595064, No Iterations 4
GAMG:  Solving for p, Initial residual = 0.0152784, Final residual = 0.000131283, No Iterations 16
GAMG:  Solving for p, Initial residual = 0.00730939, Final residual = 5.82566e-05, No Iterations 4
time step continuity errors : sum local = 5.53224e-07, global = 1.84972e-07, cumulative = 1.84972e-07
GAMG:  Solving for p, Initial residual = 0.0511107, Final residual = 0.000262246, No Iterations 4
GAMG:  Solving for p, Initial residual = 0.00747573, Final residual = 6.84972e-05, No Iterations 14
GAMG:  Solving for p, Initial residual = 0.0036726, Final residual = 3.1778e-05, No Iterations 4
time step continuity errors : sum local = 3.03776e-07, global = 1.06392e-07, cumulative = 2.91365e-07
PIMPLE: iteration 2
DILUPBiCG:  Solving for Ux, Initial residual = 0.0122632, Final residual = 7.64045e-05, No Iterations 1
DILUPBiCG:  Solving for Uy, Initial residual = 0.00258397, Final residual = 5.29647e-06, No Iterations 1
DILUPBiCG:  Solving for Uz, Initial residual = 0.00275961, Final residual = 1.09887e-05, No Iterations 1
GAMG:  Solving for p, Initial residual = 0.0497101, Final residual = 0.000496369, No Iterations 5
GAMG:  Solving for p, Initial residual = 0.0116265, Final residual = 0.000109429, No Iterations 8
GAMG:  Solving for p, Initial residual = 0.00460327, Final residual = 2.31823e-05, No Iterations 5
time step continuity errors : sum local = 1.93151e-07, global = -4.27352e-08, cumulative = 2.4863e-07
GAMG:  Solving for p, Initial residual = 0.0263443, Final residual = 0.00023638, No Iterations 4
GAMG:  Solving for p, Initial residual = 0.00615284, Final residual = 5.4342e-05, No Iterations 12
GAMG:  Solving for p, Initial residual = 0.00231952, Final residual = 2.14236e-05, No Iterations 10
time step continuity errors : sum local = 1.78842e-07, global = -4.53266e-08, cumulative = 2.03303e-07
PIMPLE: iteration 3
DILUPBiCG:  Solving for Ux, Initial residual = 0.00249117, Final residual = 2.99338e-06, No Iterations 2
DILUPBiCG:  Solving for Uy, Initial residual = 0.000556894, Final residual = 5.35827e-06, No Iterations 1
DILUPBiCG:  Solving for Uz, Initial residual = 0.00417973, Final residual = 2.59826e-06, No Iterations 2
GAMG:  Solving for p, Initial residual = 0.0477796, Final residual = 0.000353961, No Iterations 5
GAMG:  Solving for p, Initial residual = 0.0107999, Final residual = 0.000102526, No Iterations 14
GAMG:  Solving for p, Initial residual = 0.00572657, Final residual = 5.37689e-05, No Iterations 10
time step continuity errors : sum local = 5.00419e-07, global = -1.34145e-07, cumulative = 6.9158e-08
GAMG:  Solving for p, Initial residual = 0.00261671, Final residual = 2.05673e-05, No Iterations 8
GAMG:  Solving for p, Initial residual = 0.00134049, Final residual = 1.29202e-05, No Iterations 4
GAMG:  Solving for p, Initial residual = 0.000531012, Final residual = 9.65966e-07, No Iterations 21
time step continuity errors : sum local = 8.87765e-09, global = 2.6239e-09, cumulative = 7.17819e-08
DILUPBiCG:  Solving for omega, Initial residual = 0.00121173, Final residual = 6.94962e-07, No Iterations 1
DILUPBiCG:  Solving for k, Initial residual = 0.00326928, Final residual = 6.5809e-07, No Iterations 2
bounding k, min: 0 max: 0.000551564 average: 0.000146921
ExecutionTime = 10.95 s  ClockTime = 11 s

End

