/*---------------------------------------------------------------------------*\
| =========                 |                                                 |
| \\      /  F ield         | OpenFOAM: The Open Source CFD Toolbox           |
|  \\    /   O peration     | Version:  2.3.1                                 |
|   \\  /    A nd           | Web:      www.OpenFOAM.org                      |
|    \\/     M anipulation  |                                                 |
\*---------------------------------------------------------------------------*/
Build  : 2.3.1-262087cdf8db
Exec   : pimpleDyMFoam
Date   : Jun 05 2023
Time   : 18:17:21
Host   : "jcosson-VirtualBox"
PID    : 13688
Case   : /home/jcosson/workspace/henersj_shootingdata/calcs/moderate_deformed/primal/56_intervals_05-06-23/sweep10/interval38
nProcs : 1
sigFpe : Enabling floating point exception trapping (FOAM_SIGFPE).
fileModificationChecking : Monitoring run-time modified files using timeStampMaster
allowSystemOperations : Allowing user-supplied system call operations

// * * * * * * * * * * * * * * * * * * * * * * * * * * * * * * * * * * * * * //
Create time

Create mesh for time = 0.466

Selecting dynamicFvMesh dynamicMotionSolverFvMesh
Selecting motion solver: displacementLaplacian
Selecting motion diffusion: quadratic
Selecting motion diffusion: quadratic
Selecting motion diffusion: inverseDistance

PIMPLE: no residual control data found. Calculations will employ 3 corrector loops

Reading field p

Reading field U

Reading/calculating face flux field phi

Selecting incompressible transport model Newtonian
Selecting turbulence model type RASModel
Selecting RAS turbulence model kOmegaSST
kOmegaSSTCoeffs
{
    alphaK1         0.85034;
    alphaK2         1;
    alphaOmega1     0.5;
    alphaOmega2     0.85616;
    gamma1          0.5532;
    gamma2          0.4403;
    beta1           0.075;
    beta2           0.0828;
    betaStar        0.09;
    a1              0.31;
    c1              10;
    Cmu             0.09;
    b1              1;
    F3              false;
}

Reading/calculating face velocity Uf

No finite volume options present

Courant Number mean: 0.237671 max: 0.529905

Starting time loop

Courant Number mean: 0.237671 max: 0.529905
Time = 0.467

GAMG:  Solving for cellDisplacementx, Initial residual = 0, Final residual = 0, No Iterations 0
GAMG:  Solving for cellDisplacementy, Initial residual = 0, Final residual = 0, No Iterations 0
GAMG:  Solving for cellDisplacementz, Initial residual = 0, Final residual = 0, No Iterations 0
PIMPLE: iteration 1
DILUPBiCG:  Solving for Ux, Initial residual = 0.0398413, Final residual = 0.000166008, No Iterations 1
DILUPBiCG:  Solving for Uy, Initial residual = 0.00641172, Final residual = 1.50481e-05, No Iterations 1
DILUPBiCG:  Solving for Uz, Initial residual = 0.01354, Final residual = 3.66723e-05, No Iterations 1
GAMG:  Solving for p, Initial residual = 0.136824, Final residual = 0.00113467, No Iterations 6
GAMG:  Solving for p, Initial residual = 0.0161426, Final residual = 0.000161247, No Iterations 18
GAMG:  Solving for p, Initial residual = 0.00687225, Final residual = 6.35644e-05, No Iterations 12
time step continuity errors : sum local = 7.92673e-07, global = 2.39065e-07, cumulative = 2.39065e-07
GAMG:  Solving for p, Initial residual = 0.0569174, Final residual = 0.000372512, No Iterations 6
GAMG:  Solving for p, Initial residual = 0.0081291, Final residual = 7.64076e-05, No Iterations 16
GAMG:  Solving for p, Initial residual = 0.00358353, Final residual = 3.14519e-05, No Iterations 12
time step continuity errors : sum local = 3.9128e-07, global = 1.17325e-07, cumulative = 3.5639e-07
PIMPLE: iteration 2
DILUPBiCG:  Solving for Ux, Initial residual = 0.0119892, Final residual = 6.78982e-05, No Iterations 1
DILUPBiCG:  Solving for Uy, Initial residual = 0.00203467, Final residual = 4.91967e-06, No Iterations 1
DILUPBiCG:  Solving for Uz, Initial residual = 0.00372757, Final residual = 1.32417e-05, No Iterations 1
GAMG:  Solving for p, Initial residual = 0.057806, Final residual = 0.000456413, No Iterations 4
GAMG:  Solving for p, Initial residual = 0.00946748, Final residual = 8.42452e-05, No Iterations 16
GAMG:  Solving for p, Initial residual = 0.00434842, Final residual = 3.95714e-05, No Iterations 8
time step continuity errors : sum local = 4.1721e-07, global = -1.33822e-07, cumulative = 2.22567e-07
GAMG:  Solving for p, Initial residual = 0.0295199, Final residual = 0.000195252, No Iterations 4
GAMG:  Solving for p, Initial residual = 0.00463319, Final residual = 4.55864e-05, No Iterations 12
GAMG:  Solving for p, Initial residual = 0.0020234, Final residual = 1.9273e-05, No Iterations 10
time step continuity errors : sum local = 2.04449e-07, global = -5.34908e-08, cumulative = 1.69076e-07
PIMPLE: iteration 3
DILUPBiCG:  Solving for Ux, Initial residual = 0.00308887, Final residual = 1.15502e-06, No Iterations 2
DILUPBiCG:  Solving for Uy, Initial residual = 0.000521628, Final residual = 7.24813e-06, No Iterations 1
DILUPBiCG:  Solving for Uz, Initial residual = 0.00699751, Final residual = 2.54043e-06, No Iterations 2
GAMG:  Solving for p, Initial residual = 0.0405001, Final residual = 0.000340959, No Iterations 5
GAMG:  Solving for p, Initial residual = 0.00932533, Final residual = 8.47715e-05, No Iterations 13
GAMG:  Solving for p, Initial residual = 0.00442688, Final residual = 4.13506e-05, No Iterations 10
time step continuity errors : sum local = 4.8818e-07, global = -1.27682e-07, cumulative = 4.1394e-08
GAMG:  Solving for p, Initial residual = 0.00264425, Final residual = 2.59439e-05, No Iterations 18
GAMG:  Solving for p, Initial residual = 0.00147408, Final residual = 1.37978e-05, No Iterations 4
GAMG:  Solving for p, Initial residual = 0.000577711, Final residual = 9.17329e-07, No Iterations 38
time step continuity errors : sum local = 1.07959e-08, global = 3.19512e-09, cumulative = 4.45892e-08
DILUPBiCG:  Solving for omega, Initial residual = 0.000570218, Final residual = 1.25611e-06, No Iterations 1
DILUPBiCG:  Solving for k, Initial residual = 0.00474023, Final residual = 1.15389e-06, No Iterations 2
ExecutionTime = 17.52 s  ClockTime = 18 s

Courant Number mean: 0.232779 max: 0.518331
Time = 0.468

GAMG:  Solving for cellDisplacementx, Initial residual = 0, Final residual = 0, No Iterations 0
GAMG:  Solving for cellDisplacementy, Initial residual = 0, Final residual = 0, No Iterations 0
GAMG:  Solving for cellDisplacementz, Initial residual = 0, Final residual = 0, No Iterations 0
PIMPLE: iteration 1
DILUPBiCG:  Solving for Ux, Initial residual = 0.0422371, Final residual = 0.000175958, No Iterations 1
DILUPBiCG:  Solving for Uy, Initial residual = 0.00681354, Final residual = 1.58761e-05, No Iterations 1
DILUPBiCG:  Solving for Uz, Initial residual = 0.0120782, Final residual = 3.3726e-05, No Iterations 1
GAMG:  Solving for p, Initial residual = 0.123645, Final residual = 0.00111581, No Iterations 6
GAMG:  Solving for p, Initial residual = 0.0138148, Final residual = 0.00013381, No Iterations 20
GAMG:  Solving for p, Initial residual = 0.00602886, Final residual = 5.29628e-05, No Iterations 12
time step continuity errors : sum local = 6.88085e-07, global = 2.07541e-07, cumulative = 2.5213e-07
GAMG:  Solving for p, Initial residual = 0.0515839, Final residual = 0.000365825, No Iterations 6
GAMG:  Solving for p, Initial residual = 0.00699946, Final residual = 6.3958e-05, No Iterations 18
GAMG:  Solving for p, Initial residual = 0.00314413, Final residual = 3.11839e-05, No Iterations 10
time step continuity errors : sum local = 4.04071e-07, global = 1.06774e-07, cumulative = 3.58904e-07
PIMPLE: iteration 2
DILUPBiCG:  Solving for Ux, Initial residual = 0.0126227, Final residual = 7.24382e-05, No Iterations 1
DILUPBiCG:  Solving for Uy, Initial residual = 0.00215002, Final residual = 5.12422e-06, No Iterations 1
DILUPBiCG:  Solving for Uz, Initial residual = 0.00360185, Final residual = 1.29778e-05, No Iterations 1
GAMG:  Solving for p, Initial residual = 0.0518998, Final residual = 0.000463684, No Iterations 4
GAMG:  Solving for p, Initial residual = 0.00814613, Final residual = 7.36368e-05, No Iterations 18
GAMG:  Solving for p, Initial residual = 0.00383575, Final residual = 3.52056e-05, No Iterations 8
time step continuity errors : sum local = 3.8642e-07, global = -1.39133e-07, cumulative = 2.19771e-07
GAMG:  Solving for p, Initial residual = 0.0265455, Final residual = 0.000197612, No Iterations 4
GAMG:  Solving for p, Initial residual = 0.00395978, Final residual = 3.86842e-05, No Iterations 14
GAMG:  Solving for p, Initial residual = 0.00174504, Final residual = 1.66e-05, No Iterations 10
time step continuity errors : sum local = 1.8341e-07, global = -4.96759e-08, cumulative = 1.70095e-07
PIMPLE: iteration 3
DILUPBiCG:  Solving for Ux, Initial residual = 0.00322393, Final residual = 1.308e-06, No Iterations 2
DILUPBiCG:  Solving for Uy, Initial residual = 0.000546493, Final residual = 7.21052e-06, No Iterations 1
DILUPBiCG:  Solving for Uz, Initial residual = 0.00712695, Final residual = 2.70562e-06, No Iterations 2
GAMG:  Solving for p, Initial residual = 0.0393731, Final residual = 0.000343936, No Iterations 5
GAMG:  Solving for p, Initial residual = 0.0090788, Final residual = 8.22206e-05, No Iterations 13
GAMG:  Solving for p, Initial residual = 0.00432433, Final residual = 3.98315e-05, No Iterations 10
time step continuity errors : sum local = 4.90184e-07, global = -1.28022e-07, cumulative = 4.20731e-08
GAMG:  Solving for p, Initial residual = 0.00252967, Final residual = 2.27633e-05, No Iterations 20
GAMG:  Solving for p, Initial residual = 0.00142656, Final residual = 1.21142e-05, No Iterations 4
GAMG:  Solving for p, Initial residual = 0.000558534, Final residual = 8.63843e-07, No Iterations 36
time step continuity errors : sum local = 1.05976e-08, global = 3.11804e-09, cumulative = 4.51911e-08
DILUPBiCG:  Solving for omega, Initial residual = 0.000553316, Final residual = 1.07476e-06, No Iterations 1
DILUPBiCG:  Solving for k, Initial residual = 0.004684, Final residual = 1.18523e-06, No Iterations 2
ExecutionTime = 33.02 s  ClockTime = 34 s

End

