/*---------------------------------------------------------------------------*\
| =========                 |                                                 |
| \\      /  F ield         | OpenFOAM: The Open Source CFD Toolbox           |
|  \\    /   O peration     | Version:  2.3.1                                 |
|   \\  /    A nd           | Web:      www.OpenFOAM.org                      |
|    \\/     M anipulation  |                                                 |
\*---------------------------------------------------------------------------*/
Build  : 2.3.1-262087cdf8db
Exec   : pimpleDyMFoam
Date   : Jun 04 2023
Time   : 16:49:48
Host   : "jcosson-VirtualBox"
PID    : 2909
Case   : /home/jcosson/workspace/henersj_shootingdata/calcs/moderate_deformed/primal/10_intervals_04-06-23/sweep1/interval2
nProcs : 1
sigFpe : Enabling floating point exception trapping (FOAM_SIGFPE).
fileModificationChecking : Monitoring run-time modified files using timeStampMaster
allowSystemOperations : Allowing user-supplied system call operations

// * * * * * * * * * * * * * * * * * * * * * * * * * * * * * * * * * * * * * //
Create time

Create mesh for time = 0.41

Selecting dynamicFvMesh dynamicMotionSolverFvMesh
Selecting motion solver: displacementLaplacian
Selecting motion diffusion: quadratic
Selecting motion diffusion: quadratic
Selecting motion diffusion: inverseDistance

PIMPLE: no residual control data found. Calculations will employ 3 corrector loops

Reading field p

Reading field U

Reading/calculating face flux field phi

Selecting incompressible transport model Newtonian
Selecting turbulence model type RASModel
Selecting RAS turbulence model kOmegaSST
kOmegaSSTCoeffs
{
    alphaK1         0.85034;
    alphaK2         1;
    alphaOmega1     0.5;
    alphaOmega2     0.85616;
    gamma1          0.5532;
    gamma2          0.4403;
    beta1           0.075;
    beta2           0.0828;
    betaStar        0.09;
    a1              0.31;
    c1              10;
    Cmu             0.09;
    b1              1;
    F3              false;
}

Reading/calculating face velocity Uf

No finite volume options present

Courant Number mean: 0.114336 max: 0.255643

Starting time loop

Courant Number mean: 0.114336 max: 0.255643
Time = 0.411

GAMG:  Solving for cellDisplacementx, Initial residual = 0, Final residual = 0, No Iterations 0
GAMG:  Solving for cellDisplacementy, Initial residual = 0, Final residual = 0, No Iterations 0
GAMG:  Solving for cellDisplacementz, Initial residual = 0, Final residual = 0, No Iterations 0
PIMPLE: iteration 1
DILUPBiCG:  Solving for Ux, Initial residual = 0.0478138, Final residual = 0.000184285, No Iterations 1
DILUPBiCG:  Solving for Uy, Initial residual = 0.00941172, Final residual = 1.98761e-05, No Iterations 1
DILUPBiCG:  Solving for Uz, Initial residual = 0.166113, Final residual = 0.000468636, No Iterations 1
GAMG:  Solving for p, Initial residual = 0.34113, Final residual = 0.00276953, No Iterations 11
GAMG:  Solving for p, Initial residual = 0.0667073, Final residual = 0.000575531, No Iterations 11
GAMG:  Solving for p, Initial residual = 0.0215489, Final residual = 0.000208353, No Iterations 13
time step continuity errors : sum local = 1.63702e-06, global = 6.95948e-07, cumulative = 6.95948e-07
GAMG:  Solving for p, Initial residual = 0.140143, Final residual = 0.00129747, No Iterations 9
GAMG:  Solving for p, Initial residual = 0.0318619, Final residual = 0.000302112, No Iterations 11
GAMG:  Solving for p, Initial residual = 0.0116847, Final residual = 0.00011544, No Iterations 11
time step continuity errors : sum local = 9.13055e-07, global = 4.06937e-07, cumulative = 1.10288e-06
PIMPLE: iteration 2
DILUPBiCG:  Solving for Ux, Initial residual = 0.0117014, Final residual = 7.93074e-05, No Iterations 1
DILUPBiCG:  Solving for Uy, Initial residual = 0.00610146, Final residual = 2.63373e-05, No Iterations 1
DILUPBiCG:  Solving for Uz, Initial residual = 0.0315856, Final residual = 7.19795e-05, No Iterations 1
GAMG:  Solving for p, Initial residual = 0.132359, Final residual = 0.000794258, No Iterations 6
GAMG:  Solving for p, Initial residual = 0.033837, Final residual = 0.000298869, No Iterations 5
GAMG:  Solving for p, Initial residual = 0.0125745, Final residual = 7.21815e-05, No Iterations 5
time step continuity errors : sum local = 4.85025e-07, global = 1.67537e-07, cumulative = 1.27042e-06
GAMG:  Solving for p, Initial residual = 0.065888, Final residual = 0.000445551, No Iterations 6
GAMG:  Solving for p, Initial residual = 0.0166086, Final residual = 0.000134221, No Iterations 6
GAMG:  Solving for p, Initial residual = 0.00614068, Final residual = 5.02743e-05, No Iterations 10
time step continuity errors : sum local = 3.39171e-07, global = 7.68932e-08, cumulative = 1.34731e-06
PIMPLE: iteration 3
DILUPBiCG:  Solving for Ux, Initial residual = 0.00204382, Final residual = 1.04972e-06, No Iterations 2
DILUPBiCG:  Solving for Uy, Initial residual = 0.00342261, Final residual = 1.87322e-06, No Iterations 2
DILUPBiCG:  Solving for Uz, Initial residual = 0.0169918, Final residual = 4.61242e-06, No Iterations 2
GAMG:  Solving for p, Initial residual = 0.047141, Final residual = 0.000384794, No Iterations 8
GAMG:  Solving for p, Initial residual = 0.0109982, Final residual = 9.8927e-05, No Iterations 12
GAMG:  Solving for p, Initial residual = 0.00391081, Final residual = 3.61852e-05, No Iterations 14
time step continuity errors : sum local = 2.8045e-07, global = 8.50912e-08, cumulative = 1.43241e-06
GAMG:  Solving for p, Initial residual = 0.00314572, Final residual = 2.5458e-05, No Iterations 11
GAMG:  Solving for p, Initial residual = 0.00204442, Final residual = 1.83265e-05, No Iterations 4
GAMG:  Solving for p, Initial residual = 0.000749523, Final residual = 9.04724e-07, No Iterations 32
time step continuity errors : sum local = 7.00486e-09, global = -2.08612e-09, cumulative = 1.43032e-06
DILUPBiCG:  Solving for omega, Initial residual = 0.00151196, Final residual = 1.12993e-06, No Iterations 1
DILUPBiCG:  Solving for k, Initial residual = 0.0036261, Final residual = 9.72389e-07, No Iterations 2
ExecutionTime = 12.83 s  ClockTime = 13 s

Courant Number mean: 0.116956 max: 0.257308
Time = 0.412

GAMG:  Solving for cellDisplacementx, Initial residual = 0, Final residual = 0, No Iterations 0
GAMG:  Solving for cellDisplacementy, Initial residual = 0, Final residual = 0, No Iterations 0
GAMG:  Solving for cellDisplacementz, Initial residual = 0, Final residual = 0, No Iterations 0
PIMPLE: iteration 1
DILUPBiCG:  Solving for Ux, Initial residual = 0.0381764, Final residual = 0.000176982, No Iterations 1
DILUPBiCG:  Solving for Uy, Initial residual = 0.0300429, Final residual = 9.0265e-05, No Iterations 1
DILUPBiCG:  Solving for Uz, Initial residual = 0.11688, Final residual = 0.000183565, No Iterations 1
GAMG:  Solving for p, Initial residual = 0.318842, Final residual = 0.00244893, No Iterations 10
GAMG:  Solving for p, Initial residual = 0.0462306, Final residual = 0.00039086, No Iterations 10
GAMG:  Solving for p, Initial residual = 0.0189808, Final residual = 0.000155366, No Iterations 4
time step continuity errors : sum local = 1.31957e-06, global = -4.58692e-07, cumulative = 9.71628e-07
GAMG:  Solving for p, Initial residual = 0.125525, Final residual = 0.00124696, No Iterations 8
GAMG:  Solving for p, Initial residual = 0.0269527, Final residual = 0.000232863, No Iterations 12
GAMG:  Solving for p, Initial residual = 0.0131616, Final residual = 8.37973e-05, No Iterations 4
time step continuity errors : sum local = 7.13434e-07, global = -2.27057e-07, cumulative = 7.44572e-07
PIMPLE: iteration 2
DILUPBiCG:  Solving for Ux, Initial residual = 0.0127551, Final residual = 8.62536e-05, No Iterations 1
DILUPBiCG:  Solving for Uy, Initial residual = 0.00453647, Final residual = 1.13443e-05, No Iterations 1
DILUPBiCG:  Solving for Uz, Initial residual = 0.0228313, Final residual = 9.30706e-05, No Iterations 1
GAMG:  Solving for p, Initial residual = 0.143388, Final residual = 0.0013746, No Iterations 8
GAMG:  Solving for p, Initial residual = 0.0343442, Final residual = 0.000302534, No Iterations 10
GAMG:  Solving for p, Initial residual = 0.0167555, Final residual = 0.000141287, No Iterations 4
time step continuity errors : sum local = 1.05249e-06, global = -3.88187e-07, cumulative = 3.56385e-07
GAMG:  Solving for p, Initial residual = 0.0694863, Final residual = 0.000605114, No Iterations 8
GAMG:  Solving for p, Initial residual = 0.0222108, Final residual = 0.000202223, No Iterations 6
GAMG:  Solving for p, Initial residual = 0.0101423, Final residual = 9.56791e-05, No Iterations 4
time step continuity errors : sum local = 7.08797e-07, global = -2.47452e-07, cumulative = 1.08933e-07
PIMPLE: iteration 3
DILUPBiCG:  Solving for Ux, Initial residual = 0.00437145, Final residual = 1.63729e-06, No Iterations 2
DILUPBiCG:  Solving for Uy, Initial residual = 0.00107469, Final residual = 4.91033e-07, No Iterations 2
DILUPBiCG:  Solving for Uz, Initial residual = 0.0145683, Final residual = 2.40762e-06, No Iterations 2
GAMG:  Solving for p, Initial residual = 0.0590033, Final residual = 0.00047511, No Iterations 7
GAMG:  Solving for p, Initial residual = 0.0167363, Final residual = 0.000155553, No Iterations 14
GAMG:  Solving for p, Initial residual = 0.00830614, Final residual = 7.45794e-05, No Iterations 10
time step continuity errors : sum local = 6.21396e-07, global = 1.58939e-07, cumulative = 2.67872e-07
GAMG:  Solving for p, Initial residual = 0.00569589, Final residual = 5.18412e-05, No Iterations 10
GAMG:  Solving for p, Initial residual = 0.00352223, Final residual = 2.82569e-05, No Iterations 4
GAMG:  Solving for p, Initial residual = 0.00138364, Final residual = 8.65088e-07, No Iterations 39
time step continuity errors : sum local = 7.13014e-09, global = -2.12865e-09, cumulative = 2.65743e-07
DILUPBiCG:  Solving for omega, Initial residual = 0.00140399, Final residual = 1.09314e-06, No Iterations 1
DILUPBiCG:  Solving for k, Initial residual = 0.00365494, Final residual = 9.60661e-07, No Iterations 2
ExecutionTime = 22.63 s  ClockTime = 23 s

Courant Number mean: 0.120709 max: 0.264822
Time = 0.413

GAMG:  Solving for cellDisplacementx, Initial residual = 0, Final residual = 0, No Iterations 0
GAMG:  Solving for cellDisplacementy, Initial residual = 0, Final residual = 0, No Iterations 0
GAMG:  Solving for cellDisplacementz, Initial residual = 0, Final residual = 0, No Iterations 0
PIMPLE: iteration 1
DILUPBiCG:  Solving for Ux, Initial residual = 0.0521875, Final residual = 0.000195327, No Iterations 1
DILUPBiCG:  Solving for Uy, Initial residual = 0.0106863, Final residual = 1.99413e-05, No Iterations 1
DILUPBiCG:  Solving for Uz, Initial residual = 0.106395, Final residual = 0.000226747, No Iterations 1
GAMG:  Solving for p, Initial residual = 0.203043, Final residual = 0.0018935, No Iterations 4
GAMG:  Solving for p, Initial residual = 0.032174, Final residual = 0.000315402, No Iterations 20
GAMG:  Solving for p, Initial residual = 0.0132775, Final residual = 0.000112639, No Iterations 10
time step continuity errors : sum local = 1.09063e-06, global = -2.74616e-07, cumulative = -8.87236e-09
GAMG:  Solving for p, Initial residual = 0.0781198, Final residual = 0.000682351, No Iterations 4
GAMG:  Solving for p, Initial residual = 0.0157181, Final residual = 0.000156496, No Iterations 18
GAMG:  Solving for p, Initial residual = 0.00709521, Final residual = 5.91738e-05, No Iterations 10
time step continuity errors : sum local = 5.81021e-07, global = -1.45882e-07, cumulative = -1.54754e-07
PIMPLE: iteration 2
DILUPBiCG:  Solving for Ux, Initial residual = 0.0150754, Final residual = 9.53154e-05, No Iterations 1
DILUPBiCG:  Solving for Uy, Initial residual = 0.00290369, Final residual = 6.24864e-06, No Iterations 1
DILUPBiCG:  Solving for Uz, Initial residual = 0.0094563, Final residual = 2.15491e-05, No Iterations 1
GAMG:  Solving for p, Initial residual = 0.0846372, Final residual = 0.000678353, No Iterations 4
GAMG:  Solving for p, Initial residual = 0.0196799, Final residual = 0.00019166, No Iterations 7
GAMG:  Solving for p, Initial residual = 0.00962508, Final residual = 8.43745e-05, No Iterations 6
time step continuity errors : sum local = 7.16205e-07, global = -1.82289e-07, cumulative = -3.37043e-07
GAMG:  Solving for p, Initial residual = 0.0423124, Final residual = 0.000294006, No Iterations 4
GAMG:  Solving for p, Initial residual = 0.0102613, Final residual = 8.86955e-05, No Iterations 7
GAMG:  Solving for p, Initial residual = 0.00495026, Final residual = 4.01273e-05, No Iterations 6
time step continuity errors : sum local = 3.43153e-07, global = -8.12978e-08, cumulative = -4.18341e-07
PIMPLE: iteration 3
DILUPBiCG:  Solving for Ux, Initial residual = 0.00411773, Final residual = 1.77792e-06, No Iterations 2
DILUPBiCG:  Solving for Uy, Initial residual = 0.000768458, Final residual = 6.05358e-06, No Iterations 1
DILUPBiCG:  Solving for Uz, Initial residual = 0.0157428, Final residual = 5.11018e-06, No Iterations 2
GAMG:  Solving for p, Initial residual = 0.0368292, Final residual = 0.000332325, No Iterations 5
GAMG:  Solving for p, Initial residual = 0.00711158, Final residual = 6.8102e-05, No Iterations 15
GAMG:  Solving for p, Initial residual = 0.00332204, Final residual = 2.8276e-05, No Iterations 10
time step continuity errors : sum local = 2.73181e-07, global = 7.13179e-08, cumulative = -3.47023e-07
GAMG:  Solving for p, Initial residual = 0.00201353, Final residual = 1.98784e-05, No Iterations 12
GAMG:  Solving for p, Initial residual = 0.00112028, Final residual = 6.45906e-06, No Iterations 5
GAMG:  Solving for p, Initial residual = 0.000450234, Final residual = 9.36878e-07, No Iterations 6
time step continuity errors : sum local = 9.04062e-09, global = -7.8937e-10, cumulative = -3.47812e-07
DILUPBiCG:  Solving for omega, Initial residual = 0.0013098, Final residual = 1.06339e-06, No Iterations 1
DILUPBiCG:  Solving for k, Initial residual = 0.00370258, Final residual = 1.04332e-06, No Iterations 2
ExecutionTime = 31.68 s  ClockTime = 32 s

Courant Number mean: 0.124771 max: 0.272895
Time = 0.414

GAMG:  Solving for cellDisplacementx, Initial residual = 0, Final residual = 0, No Iterations 0
GAMG:  Solving for cellDisplacementy, Initial residual = 0, Final residual = 0, No Iterations 0
GAMG:  Solving for cellDisplacementz, Initial residual = 0, Final residual = 0, No Iterations 0
PIMPLE: iteration 1
DILUPBiCG:  Solving for Ux, Initial residual = 0.0570773, Final residual = 0.000213842, No Iterations 1
DILUPBiCG:  Solving for Uy, Initial residual = 0.0108859, Final residual = 1.93401e-05, No Iterations 1
DILUPBiCG:  Solving for Uz, Initial residual = 0.0430505, Final residual = 7.29451e-05, No Iterations 1
GAMG:  Solving for p, Initial residual = 0.156882, Final residual = 0.00117916, No Iterations 6
GAMG:  Solving for p, Initial residual = 0.0208162, Final residual = 0.000190003, No Iterations 16
GAMG:  Solving for p, Initial residual = 0.00915654, Final residual = 7.25872e-05, No Iterations 4
time step continuity errors : sum local = 7.62043e-07, global = -2.92988e-07, cumulative = -6.408e-07
GAMG:  Solving for p, Initial residual = 0.0651464, Final residual = 0.000642901, No Iterations 4
GAMG:  Solving for p, Initial residual = 0.0105683, Final residual = 0.000105084, No Iterations 14
GAMG:  Solving for p, Initial residual = 0.00481078, Final residual = 4.43766e-05, No Iterations 4
time step continuity errors : sum local = 4.66828e-07, global = -1.81846e-07, cumulative = -8.22646e-07
PIMPLE: iteration 2
DILUPBiCG:  Solving for Ux, Initial residual = 0.0157777, Final residual = 9.53598e-05, No Iterations 1
DILUPBiCG:  Solving for Uy, Initial residual = 0.00296544, Final residual = 6.56357e-06, No Iterations 1
DILUPBiCG:  Solving for Uz, Initial residual = 0.00622874, Final residual = 3.17027e-05, No Iterations 1
GAMG:  Solving for p, Initial residual = 0.0690653, Final residual = 0.000361063, No Iterations 4
GAMG:  Solving for p, Initial residual = 0.0123109, Final residual = 0.000112814, No Iterations 10
GAMG:  Solving for p, Initial residual = 0.0057554, Final residual = 5.07047e-05, No Iterations 4
time step continuity errors : sum local = 4.58833e-07, global = 1.67912e-07, cumulative = -6.54734e-07
GAMG:  Solving for p, Initial residual = 0.0349422, Final residual = 0.000171585, No Iterations 4
GAMG:  Solving for p, Initial residual = 0.00625629, Final residual = 5.20754e-05, No Iterations 4
GAMG:  Solving for p, Initial residual = 0.00288164, Final residual = 2.5487e-05, No Iterations 12
time step continuity errors : sum local = 2.32086e-07, global = 6.96666e-08, cumulative = -5.85067e-07
PIMPLE: iteration 3
DILUPBiCG:  Solving for Ux, Initial residual = 0.00393259, Final residual = 1.59347e-06, No Iterations 2
DILUPBiCG:  Solving for Uy, Initial residual = 0.000780284, Final residual = 6.51422e-06, No Iterations 1
DILUPBiCG:  Solving for Uz, Initial residual = 0.00559425, Final residual = 1.56601e-06, No Iterations 2
GAMG:  Solving for p, Initial residual = 0.03562, Final residual = 0.000250555, No Iterations 6
GAMG:  Solving for p, Initial residual = 0.00707035, Final residual = 6.54869e-05, No Iterations 18
GAMG:  Solving for p, Initial residual = 0.00351067, Final residual = 3.4677e-05, No Iterations 8
time step continuity errors : sum local = 3.55932e-07, global = 6.8804e-08, cumulative = -5.16263e-07
GAMG:  Solving for p, Initial residual = 0.00192878, Final residual = 1.64436e-05, No Iterations 8
GAMG:  Solving for p, Initial residual = 0.00102335, Final residual = 8.33388e-06, No Iterations 5
GAMG:  Solving for p, Initial residual = 0.000425368, Final residual = 9.38265e-07, No Iterations 26
time step continuity errors : sum local = 9.57219e-09, global = -2.85235e-09, cumulative = -5.19116e-07
DILUPBiCG:  Solving for omega, Initial residual = 0.00122388, Final residual = 1.03005e-06, No Iterations 1
DILUPBiCG:  Solving for k, Initial residual = 0.00375072, Final residual = 1.07194e-06, No Iterations 2
ExecutionTime = 42.25 s  ClockTime = 43 s

Courant Number mean: 0.129083 max: 0.281561
Time = 0.415

GAMG:  Solving for cellDisplacementx, Initial residual = 0, Final residual = 0, No Iterations 0
GAMG:  Solving for cellDisplacementy, Initial residual = 0, Final residual = 0, No Iterations 0
GAMG:  Solving for cellDisplacementz, Initial residual = 0, Final residual = 0, No Iterations 0
PIMPLE: iteration 1
DILUPBiCG:  Solving for Ux, Initial residual = 0.0580609, Final residual = 0.000213881, No Iterations 1
DILUPBiCG:  Solving for Uy, Initial residual = 0.0111234, Final residual = 2.05725e-05, No Iterations 1
DILUPBiCG:  Solving for Uz, Initial residual = 0.0390631, Final residual = 8.17844e-05, No Iterations 1
GAMG:  Solving for p, Initial residual = 0.143939, Final residual = 0.00124132, No Iterations 6
GAMG:  Solving for p, Initial residual = 0.0170072, Final residual = 0.00016662, No Iterations 20
GAMG:  Solving for p, Initial residual = 0.00766202, Final residual = 6.10637e-05, No Iterations 10
time step continuity errors : sum local = 6.88476e-07, global = -1.71803e-07, cumulative = -6.90918e-07
GAMG:  Solving for p, Initial residual = 0.0591752, Final residual = 0.000441609, No Iterations 6
GAMG:  Solving for p, Initial residual = 0.00853699, Final residual = 7.33118e-05, No Iterations 20
GAMG:  Solving for p, Initial residual = 0.00403964, Final residual = 3.74286e-05, No Iterations 8
time step continuity errors : sum local = 4.24649e-07, global = -8.72604e-08, cumulative = -7.78179e-07
PIMPLE: iteration 2
DILUPBiCG:  Solving for Ux, Initial residual = 0.0163963, Final residual = 9.81199e-05, No Iterations 1
DILUPBiCG:  Solving for Uy, Initial residual = 0.00302405, Final residual = 6.58551e-06, No Iterations 1
DILUPBiCG:  Solving for Uz, Initial residual = 0.00489187, Final residual = 1.60504e-05, No Iterations 1
GAMG:  Solving for p, Initial residual = 0.0618201, Final residual = 0.000367627, No Iterations 4
GAMG:  Solving for p, Initial residual = 0.0103777, Final residual = 9.82978e-05, No Iterations 14
GAMG:  Solving for p, Initial residual = 0.00531661, Final residual = 4.86002e-05, No Iterations 5
time step continuity errors : sum local = 4.73765e-07, global = -1.78643e-07, cumulative = -9.56822e-07
GAMG:  Solving for p, Initial residual = 0.0313393, Final residual = 0.000161106, No Iterations 4
GAMG:  Solving for p, Initial residual = 0.00536739, Final residual = 5.20407e-05, No Iterations 12
GAMG:  Solving for p, Initial residual = 0.00264435, Final residual = 2.14642e-05, No Iterations 7
time step continuity errors : sum local = 2.10338e-07, global = -6.31967e-08, cumulative = -1.02002e-06
PIMPLE: iteration 3
DILUPBiCG:  Solving for Ux, Initial residual = 0.00423997, Final residual = 1.71685e-06, No Iterations 2
DILUPBiCG:  Solving for Uy, Initial residual = 0.00077073, Final residual = 6.30685e-06, No Iterations 1
DILUPBiCG:  Solving for Uz, Initial residual = 0.0107218, Final residual = 3.62629e-06, No Iterations 2
GAMG:  Solving for p, Initial residual = 0.0359046, Final residual = 0.000328265, No Iterations 5
GAMG:  Solving for p, Initial residual = 0.00722871, Final residual = 6.81241e-05, No Iterations 17
GAMG:  Solving for p, Initial residual = 0.00345919, Final residual = 2.80322e-05, No Iterations 10
time step continuity errors : sum local = 3.10029e-07, global = 7.96867e-08, cumulative = -9.40332e-07
GAMG:  Solving for p, Initial residual = 0.00184073, Final residual = 1.64568e-05, No Iterations 10
GAMG:  Solving for p, Initial residual = 0.00103167, Final residual = 8.52027e-06, No Iterations 5
GAMG:  Solving for p, Initial residual = 0.000425133, Final residual = 9.15758e-07, No Iterations 26
time step continuity errors : sum local = 1.00782e-08, global = -2.99537e-09, cumulative = -9.43327e-07
DILUPBiCG:  Solving for omega, Initial residual = 0.00114711, Final residual = 9.99053e-07, No Iterations 1
DILUPBiCG:  Solving for k, Initial residual = 0.00380517, Final residual = 1.11516e-06, No Iterations 2
ExecutionTime = 51.9 s  ClockTime = 52 s

Courant Number mean: 0.133647 max: 0.290761
Time = 0.416

GAMG:  Solving for cellDisplacementx, Initial residual = 0, Final residual = 0, No Iterations 0
GAMG:  Solving for cellDisplacementy, Initial residual = 0, Final residual = 0, No Iterations 0
GAMG:  Solving for cellDisplacementz, Initial residual = 0, Final residual = 0, No Iterations 0
PIMPLE: iteration 1
DILUPBiCG:  Solving for Ux, Initial residual = 0.0606391, Final residual = 0.000222436, No Iterations 1
DILUPBiCG:  Solving for Uy, Initial residual = 0.011184, Final residual = 2.02516e-05, No Iterations 1
DILUPBiCG:  Solving for Uz, Initial residual = 0.0270041, Final residual = 3.39956e-05, No Iterations 1
GAMG:  Solving for p, Initial residual = 0.136469, Final residual = 0.00107074, No Iterations 6
GAMG:  Solving for p, Initial residual = 0.0156094, Final residual = 0.000146347, No Iterations 18
GAMG:  Solving for p, Initial residual = 0.00689069, Final residual = 6.37059e-05, No Iterations 4
time step continuity errors : sum local = 7.59904e-07, global = -2.99906e-07, cumulative = -1.24323e-06
GAMG:  Solving for p, Initial residual = 0.0571269, Final residual = 0.000370294, No Iterations 6
GAMG:  Solving for p, Initial residual = 0.00786652, Final residual = 7.0732e-05, No Iterations 16
GAMG:  Solving for p, Initial residual = 0.00354965, Final residual = 3.54452e-05, No Iterations 4
time step continuity errors : sum local = 4.23445e-07, global = -1.64293e-07, cumulative = -1.40753e-06
PIMPLE: iteration 2
DILUPBiCG:  Solving for Ux, Initial residual = 0.0168117, Final residual = 9.76526e-05, No Iterations 1
DILUPBiCG:  Solving for Uy, Initial residual = 0.00307009, Final residual = 6.90701e-06, No Iterations 1
DILUPBiCG:  Solving for Uz, Initial residual = 0.00508798, Final residual = 2.46304e-05, No Iterations 1
GAMG:  Solving for p, Initial residual = 0.059126, Final residual = 0.000372565, No Iterations 4
GAMG:  Solving for p, Initial residual = 0.00882261, Final residual = 8.50863e-05, No Iterations 14
GAMG:  Solving for p, Initial residual = 0.00419306, Final residual = 3.90127e-05, No Iterations 8
time step continuity errors : sum local = 3.99662e-07, global = 9.36979e-08, cumulative = -1.31383e-06
GAMG:  Solving for p, Initial residual = 0.0299976, Final residual = 0.000169129, No Iterations 4
GAMG:  Solving for p, Initial residual = 0.00448389, Final residual = 4.31087e-05, No Iterations 12
GAMG:  Solving for p, Initial residual = 0.00208383, Final residual = 2.03896e-05, No Iterations 6
time step continuity errors : sum local = 2.09584e-07, global = 5.44959e-08, cumulative = -1.25933e-06
PIMPLE: iteration 3
DILUPBiCG:  Solving for Ux, Initial residual = 0.00418714, Final residual = 1.63552e-06, No Iterations 2
DILUPBiCG:  Solving for Uy, Initial residual = 0.000787909, Final residual = 6.79126e-06, No Iterations 1
DILUPBiCG:  Solving for Uz, Initial residual = 0.00623741, Final residual = 2.29301e-06, No Iterations 2
GAMG:  Solving for p, Initial residual = 0.0362478, Final residual = 0.000230002, No Iterations 6
GAMG:  Solving for p, Initial residual = 0.00742727, Final residual = 6.44905e-05, No Iterations 18
GAMG:  Solving for p, Initial residual = 0.00369671, Final residual = 3.64632e-05, No Iterations 6
time step continuity errors : sum local = 4.22823e-07, global = 8.76119e-08, cumulative = -1.17172e-06
GAMG:  Solving for p, Initial residual = 0.00196764, Final residual = 1.96462e-05, No Iterations 10
GAMG:  Solving for p, Initial residual = 0.00106713, Final residual = 9.66616e-06, No Iterations 8
GAMG:  Solving for p, Initial residual = 0.000438438, Final residual = 9.09789e-07, No Iterations 28
time step continuity errors : sum local = 1.04819e-08, global = -3.14872e-09, cumulative = -1.17487e-06
DILUPBiCG:  Solving for omega, Initial residual = 0.00107631, Final residual = 9.6645e-07, No Iterations 1
DILUPBiCG:  Solving for k, Initial residual = 0.00386222, Final residual = 1.14771e-06, No Iterations 2
ExecutionTime = 62.37 s  ClockTime = 63 s

Courant Number mean: 0.138413 max: 0.300436
Time = 0.417

GAMG:  Solving for cellDisplacementx, Initial residual = 0, Final residual = 0, No Iterations 0
GAMG:  Solving for cellDisplacementy, Initial residual = 0, Final residual = 0, No Iterations 0
GAMG:  Solving for cellDisplacementz, Initial residual = 0, Final residual = 0, No Iterations 0
PIMPLE: iteration 1
DILUPBiCG:  Solving for Ux, Initial residual = 0.0612717, Final residual = 0.00022209, No Iterations 1
DILUPBiCG:  Solving for Uy, Initial residual = 0.0113496, Final residual = 2.1253e-05, No Iterations 1
DILUPBiCG:  Solving for Uz, Initial residual = 0.0293403, Final residual = 5.27164e-05, No Iterations 1
GAMG:  Solving for p, Initial residual = 0.133453, Final residual = 0.00111295, No Iterations 6
GAMG:  Solving for p, Initial residual = 0.014948, Final residual = 0.000145733, No Iterations 20
GAMG:  Solving for p, Initial residual = 0.00673882, Final residual = 6.7142e-05, No Iterations 8
time step continuity errors : sum local = 8.43518e-07, global = -1.83196e-07, cumulative = -1.35807e-06
GAMG:  Solving for p, Initial residual = 0.0555643, Final residual = 0.000395611, No Iterations 6
GAMG:  Solving for p, Initial residual = 0.00749518, Final residual = 7.47763e-05, No Iterations 18
GAMG:  Solving for p, Initial residual = 0.00352499, Final residual = 2.9188e-05, No Iterations 10
time step continuity errors : sum local = 3.68138e-07, global = -9.36312e-08, cumulative = -1.4517e-06
PIMPLE: iteration 2
DILUPBiCG:  Solving for Ux, Initial residual = 0.0172046, Final residual = 9.81618e-05, No Iterations 1
DILUPBiCG:  Solving for Uy, Initial residual = 0.00309171, Final residual = 6.88643e-06, No Iterations 1
DILUPBiCG:  Solving for Uz, Initial residual = 0.00447964, Final residual = 1.64282e-05, No Iterations 1
GAMG:  Solving for p, Initial residual = 0.057195, Final residual = 0.00039948, No Iterations 4
GAMG:  Solving for p, Initial residual = 0.0088668, Final residual = 7.9347e-05, No Iterations 16
GAMG:  Solving for p, Initial residual = 0.00443293, Final residual = 4.22235e-05, No Iterations 5
time step continuity errors : sum local = 4.56858e-07, global = -1.73345e-07, cumulative = -1.62504e-06
GAMG:  Solving for p, Initial residual = 0.0290795, Final residual = 0.000175481, No Iterations 4
GAMG:  Solving for p, Initial residual = 0.00453039, Final residual = 4.00024e-05, No Iterations 14
GAMG:  Solving for p, Initial residual = 0.00216973, Final residual = 1.7625e-05, No Iterations 7
time step continuity errors : sum local = 1.91687e-07, global = -6.26713e-08, cumulative = -1.68771e-06
PIMPLE: iteration 3
DILUPBiCG:  Solving for Ux, Initial residual = 0.00435494, Final residual = 1.67412e-06, No Iterations 2
DILUPBiCG:  Solving for Uy, Initial residual = 0.000776071, Final residual = 6.63691e-06, No Iterations 1
DILUPBiCG:  Solving for Uz, Initial residual = 0.0101888, Final residual = 3.30254e-06, No Iterations 2
GAMG:  Solving for p, Initial residual = 0.0367324, Final residual = 0.000320162, No Iterations 5
GAMG:  Solving for p, Initial residual = 0.00762913, Final residual = 6.85732e-05, No Iterations 17
GAMG:  Solving for p, Initial residual = 0.00368448, Final residual = 3.39647e-05, No Iterations 8
time step continuity errors : sum local = 4.16084e-07, global = 9.14593e-08, cumulative = -1.59625e-06
GAMG:  Solving for p, Initial residual = 0.00194257, Final residual = 1.61633e-05, No Iterations 12
GAMG:  Solving for p, Initial residual = 0.0010868, Final residual = 1.0676e-05, No Iterations 4
GAMG:  Solving for p, Initial residual = 0.000444522, Final residual = 9.96208e-07, No Iterations 26
time step continuity errors : sum local = 1.21367e-08, global = -3.61353e-09, cumulative = -1.59987e-06
DILUPBiCG:  Solving for omega, Initial residual = 0.00101218, Final residual = 9.34874e-07, No Iterations 1
DILUPBiCG:  Solving for k, Initial residual = 0.00392463, Final residual = 1.18548e-06, No Iterations 2
ExecutionTime = 70.66 s  ClockTime = 71 s

Courant Number mean: 0.143395 max: 0.310538
Time = 0.418

GAMG:  Solving for cellDisplacementx, Initial residual = 0, Final residual = 0, No Iterations 0
GAMG:  Solving for cellDisplacementy, Initial residual = 0, Final residual = 0, No Iterations 0
GAMG:  Solving for cellDisplacementz, Initial residual = 0, Final residual = 0, No Iterations 0
PIMPLE: iteration 1
DILUPBiCG:  Solving for Ux, Initial residual = 0.0627586, Final residual = 0.000225549, No Iterations 1
DILUPBiCG:  Solving for Uy, Initial residual = 0.0112885, Final residual = 2.08463e-05, No Iterations 1
DILUPBiCG:  Solving for Uz, Initial residual = 0.0236876, Final residual = 2.7269e-05, No Iterations 1
GAMG:  Solving for p, Initial residual = 0.129916, Final residual = 0.00100062, No Iterations 6
GAMG:  Solving for p, Initial residual = 0.0144953, Final residual = 0.000139691, No Iterations 18
GAMG:  Solving for p, Initial residual = 0.00642244, Final residual = 5.37701e-05, No Iterations 10
time step continuity errors : sum local = 7.03524e-07, global = -1.81558e-07, cumulative = -1.78142e-06
GAMG:  Solving for p, Initial residual = 0.0546778, Final residual = 0.000344418, No Iterations 6
GAMG:  Solving for p, Initial residual = 0.00727131, Final residual = 6.76208e-05, No Iterations 16
GAMG:  Solving for p, Initial residual = 0.00329796, Final residual = 2.93499e-05, No Iterations 10
time step continuity errors : sum local = 3.84471e-07, global = -1.00049e-07, cumulative = -1.88147e-06
PIMPLE: iteration 2
DILUPBiCG:  Solving for Ux, Initial residual = 0.0174301, Final residual = 9.68966e-05, No Iterations 1
DILUPBiCG:  Solving for Uy, Initial residual = 0.00310626, Final residual = 7.09902e-06, No Iterations 1
DILUPBiCG:  Solving for Uz, Initial residual = 0.00475454, Final residual = 2.15338e-05, No Iterations 1
GAMG:  Solving for p, Initial residual = 0.0561213, Final residual = 0.000401829, No Iterations 4
GAMG:  Solving for p, Initial residual = 0.00828442, Final residual = 7.46586e-05, No Iterations 16
GAMG:  Solving for p, Initial residual = 0.00394508, Final residual = 3.45711e-05, No Iterations 8
time step continuity errors : sum local = 3.87733e-07, global = 1.07007e-07, cumulative = -1.77447e-06
GAMG:  Solving for p, Initial residual = 0.0285633, Final residual = 0.00018112, No Iterations 4
GAMG:  Solving for p, Initial residual = 0.00419964, Final residual = 3.66223e-05, No Iterations 14
GAMG:  Solving for p, Initial residual = 0.00192367, Final residual = 1.85834e-05, No Iterations 6
time step continuity errors : sum local = 2.09266e-07, global = 5.76798e-08, cumulative = -1.71679e-06
PIMPLE: iteration 3
DILUPBiCG:  Solving for Ux, Initial residual = 0.00429333, Final residual = 1.61032e-06, No Iterations 2
DILUPBiCG:  Solving for Uy, Initial residual = 0.000783152, Final residual = 7.0852e-06, No Iterations 1
DILUPBiCG:  Solving for Uz, Initial residual = 0.00705995, Final residual = 2.64291e-06, No Iterations 2
GAMG:  Solving for p, Initial residual = 0.0372087, Final residual = 0.000345567, No Iterations 5
GAMG:  Solving for p, Initial residual = 0.00793234, Final residual = 7.13675e-05, No Iterations 17
GAMG:  Solving for p, Initial residual = 0.0038924, Final residual = 3.53203e-05, No Iterations 8
time step continuity errors : sum local = 4.47859e-07, global = 9.42526e-08, cumulative = -1.62254e-06
GAMG:  Solving for p, Initial residual = 0.0020481, Final residual = 1.846e-05, No Iterations 14
GAMG:  Solving for p, Initial residual = 0.00112368, Final residual = 9.62948e-06, No Iterations 4
GAMG:  Solving for p, Initial residual = 0.000456749, Final residual = 8.77469e-07, No Iterations 24
time step continuity errors : sum local = 1.10524e-08, global = -3.16617e-09, cumulative = -1.6257e-06
DILUPBiCG:  Solving for omega, Initial residual = 0.000953786, Final residual = 9.01924e-07, No Iterations 1
DILUPBiCG:  Solving for k, Initial residual = 0.00398881, Final residual = 1.20828e-06, No Iterations 2
ExecutionTime = 79.39 s  ClockTime = 80 s

Courant Number mean: 0.148536 max: 0.321019
Time = 0.419

GAMG:  Solving for cellDisplacementx, Initial residual = 0, Final residual = 0, No Iterations 0
GAMG:  Solving for cellDisplacementy, Initial residual = 0, Final residual = 0, No Iterations 0
GAMG:  Solving for cellDisplacementz, Initial residual = 0, Final residual = 0, No Iterations 0
PIMPLE: iteration 1
DILUPBiCG:  Solving for Ux, Initial residual = 0.0628609, Final residual = 0.000223839, No Iterations 1
DILUPBiCG:  Solving for Uy, Initial residual = 0.0113309, Final residual = 2.14909e-05, No Iterations 1
DILUPBiCG:  Solving for Uz, Initial residual = 0.0259388, Final residual = 4.14926e-05, No Iterations 1
GAMG:  Solving for p, Initial residual = 0.12858, Final residual = 0.00103746, No Iterations 6
GAMG:  Solving for p, Initial residual = 0.0143964, Final residual = 0.000136247, No Iterations 20
GAMG:  Solving for p, Initial residual = 0.00649149, Final residual = 6.32382e-05, No Iterations 8
time step continuity errors : sum local = 8.60179e-07, global = -1.87802e-07, cumulative = -1.8135e-06
GAMG:  Solving for p, Initial residual = 0.0539856, Final residual = 0.000369631, No Iterations 6
GAMG:  Solving for p, Initial residual = 0.00721013, Final residual = 6.96662e-05, No Iterations 18
GAMG:  Solving for p, Initial residual = 0.00337574, Final residual = 2.77684e-05, No Iterations 10
time step continuity errors : sum local = 3.78885e-07, global = -9.67913e-08, cumulative = -1.91029e-06
PIMPLE: iteration 2
DILUPBiCG:  Solving for Ux, Initial residual = 0.0176152, Final residual = 9.592e-05, No Iterations 1
DILUPBiCG:  Solving for Uy, Initial residual = 0.003097, Final residual = 7.08505e-06, No Iterations 1
DILUPBiCG:  Solving for Uz, Initial residual = 0.00431643, Final residual = 1.63838e-05, No Iterations 1
GAMG:  Solving for p, Initial residual = 0.0551983, Final residual = 0.000421785, No Iterations 4
GAMG:  Solving for p, Initial residual = 0.0084894, Final residual = 7.94153e-05, No Iterations 16
GAMG:  Solving for p, Initial residual = 0.00414332, Final residual = 3.63188e-05, No Iterations 7
time step continuity errors : sum local = 4.24514e-07, global = -1.39865e-07, cumulative = -2.05016e-06
GAMG:  Solving for p, Initial residual = 0.0281318, Final residual = 0.000184774, No Iterations 4
GAMG:  Solving for p, Initial residual = 0.00429381, Final residual = 3.9649e-05, No Iterations 14
GAMG:  Solving for p, Initial residual = 0.0020086, Final residual = 1.95238e-05, No Iterations 7
time step continuity errors : sum local = 2.29358e-07, global = -8.66843e-08, cumulative = -2.13684e-06
PIMPLE: iteration 3
DILUPBiCG:  Solving for Ux, Initial residual = 0.00440128, Final residual = 1.61289e-06, No Iterations 2
DILUPBiCG:  Solving for Uy, Initial residual = 0.000771223, Final residual = 6.99443e-06, No Iterations 1
DILUPBiCG:  Solving for Uz, Initial residual = 0.0100868, Final residual = 3.15516e-06, No Iterations 2
GAMG:  Solving for p, Initial residual = 0.037523, Final residual = 0.000307738, No Iterations 5
GAMG:  Solving for p, Initial residual = 0.00796886, Final residual = 7.93093e-05, No Iterations 15
GAMG:  Solving for p, Initial residual = 0.00384673, Final residual = 3.57525e-05, No Iterations 10
time step continuity errors : sum local = 4.72526e-07, global = 1.22505e-07, cumulative = -2.01434e-06
GAMG:  Solving for p, Initial residual = 0.00202754, Final residual = 1.75774e-05, No Iterations 12
GAMG:  Solving for p, Initial residual = 0.00113696, Final residual = 1.05325e-05, No Iterations 4
GAMG:  Solving for p, Initial residual = 0.000460798, Final residual = 9.26735e-07, No Iterations 26
time step continuity errors : sum local = 1.21719e-08, global = -3.61531e-09, cumulative = -2.01795e-06
DILUPBiCG:  Solving for omega, Initial residual = 0.000901147, Final residual = 8.68289e-07, No Iterations 1
DILUPBiCG:  Solving for k, Initial residual = 0.00405748, Final residual = 1.22403e-06, No Iterations 2
ExecutionTime = 88.29 s  ClockTime = 89 s

Courant Number mean: 0.153854 max: 0.331835
Time = 0.42

GAMG:  Solving for cellDisplacementx, Initial residual = 0, Final residual = 0, No Iterations 0
GAMG:  Solving for cellDisplacementy, Initial residual = 0, Final residual = 0, No Iterations 0
GAMG:  Solving for cellDisplacementz, Initial residual = 0, Final residual = 0, No Iterations 0
PIMPLE: iteration 1
DILUPBiCG:  Solving for Ux, Initial residual = 0.0635337, Final residual = 0.000223887, No Iterations 1
DILUPBiCG:  Solving for Uy, Initial residual = 0.0111741, Final residual = 2.10787e-05, No Iterations 1
DILUPBiCG:  Solving for Uz, Initial residual = 0.0224709, Final residual = 2.54232e-05, No Iterations 1
GAMG:  Solving for p, Initial residual = 0.125986, Final residual = 0.000947563, No Iterations 6
GAMG:  Solving for p, Initial residual = 0.0140891, Final residual = 0.000134327, No Iterations 18
GAMG:  Solving for p, Initial residual = 0.00627085, Final residual = 5.9804e-05, No Iterations 4
time step continuity errors : sum local = 8.37019e-07, global = -3.27692e-07, cumulative = -2.34565e-06
GAMG:  Solving for p, Initial residual = 0.0534305, Final residual = 0.000334275, No Iterations 6
GAMG:  Solving for p, Initial residual = 0.00708839, Final residual = 6.60483e-05, No Iterations 16
GAMG:  Solving for p, Initial residual = 0.00321247, Final residual = 2.82222e-05, No Iterations 10
time step continuity errors : sum local = 3.95406e-07, global = -1.0297e-07, cumulative = -2.44862e-06
PIMPLE: iteration 2
DILUPBiCG:  Solving for Ux, Initial residual = 0.0176848, Final residual = 9.38923e-05, No Iterations 1
DILUPBiCG:  Solving for Uy, Initial residual = 0.00308866, Final residual = 7.23745e-06, No Iterations 1
DILUPBiCG:  Solving for Uz, Initial residual = 0.00452454, Final residual = 1.99106e-05, No Iterations 1
GAMG:  Solving for p, Initial residual = 0.0544617, Final residual = 0.000422974, No Iterations 4
GAMG:  Solving for p, Initial residual = 0.00815751, Final residual = 7.66802e-05, No Iterations 16
GAMG:  Solving for p, Initial residual = 0.00384818, Final residual = 3.56004e-05, No Iterations 8
time step continuity errors : sum local = 4.2656e-07, global = 1.15849e-07, cumulative = -2.33277e-06
GAMG:  Solving for p, Initial residual = 0.0277799, Final residual = 0.000189621, No Iterations 4
GAMG:  Solving for p, Initial residual = 0.00412058, Final residual = 3.75232e-05, No Iterations 14
GAMG:  Solving for p, Initial residual = 0.00185194, Final residual = 1.75659e-05, No Iterations 8
time step continuity errors : sum local = 2.11363e-07, global = 5.0607e-08, cumulative = -2.28216e-06
PIMPLE: iteration 3
DILUPBiCG:  Solving for Ux, Initial residual = 0.00432057, Final residual = 1.55802e-06, No Iterations 2
DILUPBiCG:  Solving for Uy, Initial residual = 0.000770511, Final residual = 7.41011e-06, No Iterations 1
DILUPBiCG:  Solving for Uz, Initial residual = 0.00748399, Final residual = 2.8266e-06, No Iterations 2
GAMG:  Solving for p, Initial residual = 0.0379851, Final residual = 0.00031336, No Iterations 5
GAMG:  Solving for p, Initial residual = 0.00824293, Final residual = 8.02069e-05, No Iterations 15
GAMG:  Solving for p, Initial residual = 0.00404424, Final residual = 3.39508e-05, No Iterations 10
time step continuity errors : sum local = 4.59346e-07, global = 1.17612e-07, cumulative = -2.16455e-06
GAMG:  Solving for p, Initial residual = 0.0021261, Final residual = 2.06643e-05, No Iterations 15
GAMG:  Solving for p, Initial residual = 0.0011744, Final residual = 9.44377e-06, No Iterations 5
GAMG:  Solving for p, Initial residual = 0.000474478, Final residual = 8.73812e-07, No Iterations 28
time step continuity errors : sum local = 1.17443e-08, global = -3.50833e-09, cumulative = -2.16806e-06
DILUPBiCG:  Solving for omega, Initial residual = 0.000853912, Final residual = 8.35302e-07, No Iterations 1
DILUPBiCG:  Solving for k, Initial residual = 0.00413096, Final residual = 1.22831e-06, No Iterations 2
ExecutionTime = 97.97 s  ClockTime = 98 s

End

