/*---------------------------------------------------------------------------*\
| =========                 |                                                 |
| \\      /  F ield         | OpenFOAM: The Open Source CFD Toolbox           |
|  \\    /   O peration     | Version:  2.3.1                                 |
|   \\  /    A nd           | Web:      www.OpenFOAM.org                      |
|    \\/     M anipulation  |                                                 |
\*---------------------------------------------------------------------------*/
Build  : 2.3.1-262087cdf8db
Exec   : pimpleDyMFoam
Date   : Jun 04 2023
Time   : 16:49:48
Host   : "jcosson-VirtualBox"
PID    : 2913
Case   : /home/jcosson/workspace/henersj_shootingdata/calcs/moderate_deformed/primal/10_intervals_04-06-23/sweep1/interval6
nProcs : 1
sigFpe : Enabling floating point exception trapping (FOAM_SIGFPE).
fileModificationChecking : Monitoring run-time modified files using timeStampMaster
allowSystemOperations : Allowing user-supplied system call operations

// * * * * * * * * * * * * * * * * * * * * * * * * * * * * * * * * * * * * * //
Create time

Create mesh for time = 0.45

Selecting dynamicFvMesh dynamicMotionSolverFvMesh
Selecting motion solver: displacementLaplacian
Selecting motion diffusion: quadratic
Selecting motion diffusion: quadratic
Selecting motion diffusion: inverseDistance

PIMPLE: no residual control data found. Calculations will employ 3 corrector loops

Reading field p

Reading field U

Reading/calculating face flux field phi

Selecting incompressible transport model Newtonian
Selecting turbulence model type RASModel
Selecting RAS turbulence model kOmegaSST
kOmegaSSTCoeffs
{
    alphaK1         0.85034;
    alphaK2         1;
    alphaOmega1     0.5;
    alphaOmega2     0.85616;
    gamma1          0.5532;
    gamma2          0.4403;
    beta1           0.075;
    beta2           0.0828;
    betaStar        0.09;
    a1              0.31;
    c1              10;
    Cmu             0.09;
    b1              1;
    F3              false;
}

Reading/calculating face velocity Uf

No finite volume options present

Courant Number mean: 0.281141 max: 0.646111

Starting time loop

Courant Number mean: 0.281141 max: 0.646111
Time = 0.451

GAMG:  Solving for cellDisplacementx, Initial residual = 0, Final residual = 0, No Iterations 0
GAMG:  Solving for cellDisplacementy, Initial residual = 0, Final residual = 0, No Iterations 0
GAMG:  Solving for cellDisplacementz, Initial residual = 0, Final residual = 0, No Iterations 0
PIMPLE: iteration 1
DILUPBiCG:  Solving for Ux, Initial residual = 0.00380989, Final residual = 3.8154e-05, No Iterations 1
DILUPBiCG:  Solving for Uy, Initial residual = 0.000826767, Final residual = 2.38781e-06, No Iterations 1
DILUPBiCG:  Solving for Uz, Initial residual = 0.0737836, Final residual = 0.0001813, No Iterations 1
GAMG:  Solving for p, Initial residual = 0.72978, Final residual = 0.00602268, No Iterations 14
GAMG:  Solving for p, Initial residual = 0.119741, Final residual = 0.00102089, No Iterations 4
GAMG:  Solving for p, Initial residual = 0.0441301, Final residual = 0.000424807, No Iterations 5
time step continuity errors : sum local = 3.0706e-06, global = -1.16007e-06, cumulative = -1.16007e-06
GAMG:  Solving for p, Initial residual = 0.18766, Final residual = 0.00144429, No Iterations 14
GAMG:  Solving for p, Initial residual = 0.0531826, Final residual = 0.000456522, No Iterations 4
GAMG:  Solving for p, Initial residual = 0.0191201, Final residual = 0.000171125, No Iterations 6
time step continuity errors : sum local = 1.18476e-06, global = 2.06333e-07, cumulative = -9.53739e-07
PIMPLE: iteration 2
DILUPBiCG:  Solving for Ux, Initial residual = 0.00477399, Final residual = 7.89773e-06, No Iterations 1
DILUPBiCG:  Solving for Uy, Initial residual = 0.00452732, Final residual = 2.36489e-05, No Iterations 1
DILUPBiCG:  Solving for Uz, Initial residual = 0.0438902, Final residual = 0.000144303, No Iterations 1
GAMG:  Solving for p, Initial residual = 0.179811, Final residual = 0.00162033, No Iterations 12
GAMG:  Solving for p, Initial residual = 0.0505319, Final residual = 0.00033805, No Iterations 6
GAMG:  Solving for p, Initial residual = 0.0185093, Final residual = 0.000156803, No Iterations 6
time step continuity errors : sum local = 9.93572e-07, global = 1.83394e-07, cumulative = -7.70344e-07
GAMG:  Solving for p, Initial residual = 0.0688927, Final residual = 0.000535365, No Iterations 12
GAMG:  Solving for p, Initial residual = 0.0232842, Final residual = 0.00022694, No Iterations 5
GAMG:  Solving for p, Initial residual = 0.00891195, Final residual = 8.29429e-05, No Iterations 7
time step continuity errors : sum local = 5.24001e-07, global = 9.29981e-08, cumulative = -6.77346e-07
PIMPLE: iteration 3
DILUPBiCG:  Solving for Ux, Initial residual = 0.00312421, Final residual = 9.63571e-06, No Iterations 1
DILUPBiCG:  Solving for Uy, Initial residual = 0.00322927, Final residual = 2.15516e-06, No Iterations 2
DILUPBiCG:  Solving for Uz, Initial residual = 0.0238788, Final residual = 3.08493e-06, No Iterations 2
GAMG:  Solving for p, Initial residual = 0.0360296, Final residual = 0.000339059, No Iterations 8
GAMG:  Solving for p, Initial residual = 0.0105519, Final residual = 9.43269e-05, No Iterations 8
GAMG:  Solving for p, Initial residual = 0.00385423, Final residual = 3.81378e-05, No Iterations 10
time step continuity errors : sum local = 2.50089e-07, global = 6.15507e-08, cumulative = -6.15796e-07
GAMG:  Solving for p, Initial residual = 0.00498843, Final residual = 3.32483e-05, No Iterations 9
GAMG:  Solving for p, Initial residual = 0.0026095, Final residual = 1.52577e-05, No Iterations 4
GAMG:  Solving for p, Initial residual = 0.000920014, Final residual = 8.59639e-07, No Iterations 8
time step continuity errors : sum local = 5.62298e-09, global = -1.28724e-09, cumulative = -6.17083e-07
DILUPBiCG:  Solving for omega, Initial residual = 0.00273255, Final residual = 3.76108e-06, No Iterations 1
DILUPBiCG:  Solving for k, Initial residual = 0.00610819, Final residual = 9.56871e-07, No Iterations 2
ExecutionTime = 13.2 s  ClockTime = 13 s

Courant Number mean: 0.279427 max: 0.628338
Time = 0.452

GAMG:  Solving for cellDisplacementx, Initial residual = 0, Final residual = 0, No Iterations 0
GAMG:  Solving for cellDisplacementy, Initial residual = 0, Final residual = 0, No Iterations 0
GAMG:  Solving for cellDisplacementz, Initial residual = 0, Final residual = 0, No Iterations 0
PIMPLE: iteration 1
DILUPBiCG:  Solving for Ux, Initial residual = 0.0188114, Final residual = 2.84843e-05, No Iterations 1
DILUPBiCG:  Solving for Uy, Initial residual = 0.0203322, Final residual = 8.25775e-05, No Iterations 1
DILUPBiCG:  Solving for Uz, Initial residual = 0.171309, Final residual = 0.00045554, No Iterations 1
GAMG:  Solving for p, Initial residual = 0.333113, Final residual = 0.00322401, No Iterations 14
GAMG:  Solving for p, Initial residual = 0.198701, Final residual = 0.00160951, No Iterations 5
GAMG:  Solving for p, Initial residual = 0.0628433, Final residual = 0.000518789, No Iterations 6
time step continuity errors : sum local = 1.77957e-06, global = -6.42533e-07, cumulative = -1.25962e-06
GAMG:  Solving for p, Initial residual = 0.215632, Final residual = 0.00184088, No Iterations 13
GAMG:  Solving for p, Initial residual = 0.100753, Final residual = 0.000591219, No Iterations 5
GAMG:  Solving for p, Initial residual = 0.0388831, Final residual = 0.000184528, No Iterations 5
time step continuity errors : sum local = 6.62583e-07, global = -2.52207e-07, cumulative = -1.51182e-06
PIMPLE: iteration 2
DILUPBiCG:  Solving for Ux, Initial residual = 0.00280065, Final residual = 6.1917e-06, No Iterations 1
DILUPBiCG:  Solving for Uy, Initial residual = 0.00199492, Final residual = 1.30993e-05, No Iterations 1
DILUPBiCG:  Solving for Uz, Initial residual = 0.0158118, Final residual = 4.92447e-05, No Iterations 1
GAMG:  Solving for p, Initial residual = 0.241702, Final residual = 0.00214693, No Iterations 13
GAMG:  Solving for p, Initial residual = 0.140118, Final residual = 0.00112139, No Iterations 5
GAMG:  Solving for p, Initial residual = 0.061097, Final residual = 0.000269692, No Iterations 5
time step continuity errors : sum local = 8.11881e-07, global = -2.29661e-07, cumulative = -1.74148e-06
GAMG:  Solving for p, Initial residual = 0.150003, Final residual = 0.00143049, No Iterations 11
GAMG:  Solving for p, Initial residual = 0.0768816, Final residual = 0.000683304, No Iterations 5
GAMG:  Solving for p, Initial residual = 0.0324031, Final residual = 0.000261594, No Iterations 5
time step continuity errors : sum local = 8.02368e-07, global = 1.86636e-07, cumulative = -1.55485e-06
PIMPLE: iteration 3
DILUPBiCG:  Solving for Ux, Initial residual = 0.000981, Final residual = 1.10063e-06, No Iterations 2
DILUPBiCG:  Solving for Uy, Initial residual = 0.00158871, Final residual = 7.6474e-07, No Iterations 2
DILUPBiCG:  Solving for Uz, Initial residual = 0.034174, Final residual = 3.10598e-06, No Iterations 2
GAMG:  Solving for p, Initial residual = 0.114805, Final residual = 0.000868539, No Iterations 11
GAMG:  Solving for p, Initial residual = 0.0572353, Final residual = 0.000432049, No Iterations 5
GAMG:  Solving for p, Initial residual = 0.022514, Final residual = 0.00021234, No Iterations 4
time step continuity errors : sum local = 7.48187e-07, global = 3.98632e-08, cumulative = -1.51499e-06
GAMG:  Solving for p, Initial residual = 0.0241553, Final residual = 0.00024125, No Iterations 5
GAMG:  Solving for p, Initial residual = 0.0172475, Final residual = 0.000152199, No Iterations 4
GAMG:  Solving for p, Initial residual = 0.00595608, Final residual = 7.95508e-07, No Iterations 21
time step continuity errors : sum local = 2.80487e-09, global = 6.63906e-10, cumulative = -1.51432e-06
DILUPBiCG:  Solving for omega, Initial residual = 0.00226932, Final residual = 3.20973e-06, No Iterations 1
DILUPBiCG:  Solving for k, Initial residual = 0.00569141, Final residual = 7.16828e-07, No Iterations 2
ExecutionTime = 24.45 s  ClockTime = 25 s

Courant Number mean: 0.278839 max: 0.627224
Time = 0.453

GAMG:  Solving for cellDisplacementx, Initial residual = 0, Final residual = 0, No Iterations 0
GAMG:  Solving for cellDisplacementy, Initial residual = 0, Final residual = 0, No Iterations 0
GAMG:  Solving for cellDisplacementz, Initial residual = 0, Final residual = 0, No Iterations 0
PIMPLE: iteration 1
DILUPBiCG:  Solving for Ux, Initial residual = 0.00505104, Final residual = 1.62949e-05, No Iterations 1
DILUPBiCG:  Solving for Uy, Initial residual = 0.00106395, Final residual = 7.26131e-06, No Iterations 1
DILUPBiCG:  Solving for Uz, Initial residual = 0.130708, Final residual = 0.000335273, No Iterations 1
GAMG:  Solving for p, Initial residual = 0.308422, Final residual = 0.00249407, No Iterations 8
GAMG:  Solving for p, Initial residual = 0.0694567, Final residual = 0.000680445, No Iterations 10
GAMG:  Solving for p, Initial residual = 0.0328088, Final residual = 0.000320936, No Iterations 6
time step continuity errors : sum local = 1.03993e-06, global = 2.85501e-07, cumulative = -1.22882e-06
GAMG:  Solving for p, Initial residual = 0.12438, Final residual = 0.00107146, No Iterations 8
GAMG:  Solving for p, Initial residual = 0.0417954, Final residual = 0.000386796, No Iterations 7
GAMG:  Solving for p, Initial residual = 0.0197588, Final residual = 0.000154275, No Iterations 5
time step continuity errors : sum local = 5.02454e-07, global = 1.51119e-07, cumulative = -1.0777e-06
PIMPLE: iteration 2
DILUPBiCG:  Solving for Ux, Initial residual = 0.00183384, Final residual = 1.14533e-05, No Iterations 1
DILUPBiCG:  Solving for Uy, Initial residual = 0.000312633, Final residual = 7.08653e-06, No Iterations 1
DILUPBiCG:  Solving for Uz, Initial residual = 0.0135411, Final residual = 3.04757e-05, No Iterations 1
GAMG:  Solving for p, Initial residual = 0.153974, Final residual = 0.00152896, No Iterations 4
GAMG:  Solving for p, Initial residual = 0.0511176, Final residual = 0.000393333, No Iterations 4
GAMG:  Solving for p, Initial residual = 0.0280297, Final residual = 0.000244034, No Iterations 4
time step continuity errors : sum local = 6.91863e-07, global = 9.22673e-08, cumulative = -9.85434e-07
GAMG:  Solving for p, Initial residual = 0.0791024, Final residual = 0.000705469, No Iterations 4
GAMG:  Solving for p, Initial residual = 0.0282717, Final residual = 0.000211195, No Iterations 4
GAMG:  Solving for p, Initial residual = 0.0145182, Final residual = 0.000114285, No Iterations 4
time step continuity errors : sum local = 3.2303e-07, global = 4.03661e-08, cumulative = -9.45068e-07
PIMPLE: iteration 3
DILUPBiCG:  Solving for Ux, Initial residual = 0.000624958, Final residual = 1.06245e-07, No Iterations 2
DILUPBiCG:  Solving for Uy, Initial residual = 0.000167938, Final residual = 5.36365e-08, No Iterations 2
DILUPBiCG:  Solving for Uz, Initial residual = 0.00993625, Final residual = 1.11388e-06, No Iterations 2
GAMG:  Solving for p, Initial residual = 0.09665, Final residual = 0.000728364, No Iterations 4
GAMG:  Solving for p, Initial residual = 0.0271004, Final residual = 0.000138699, No Iterations 5
GAMG:  Solving for p, Initial residual = 0.014038, Final residual = 0.000127574, No Iterations 5
time step continuity errors : sum local = 3.8807e-07, global = -7.5352e-08, cumulative = -1.02042e-06
GAMG:  Solving for p, Initial residual = 0.0115853, Final residual = 7.19809e-05, No Iterations 5
GAMG:  Solving for p, Initial residual = 0.00672374, Final residual = 5.34865e-05, No Iterations 4
GAMG:  Solving for p, Initial residual = 0.00253764, Final residual = 9.37978e-07, No Iterations 22
time step continuity errors : sum local = 2.79963e-09, global = -9.51299e-10, cumulative = -1.02137e-06
DILUPBiCG:  Solving for omega, Initial residual = 0.00197271, Final residual = 2.86069e-06, No Iterations 1
DILUPBiCG:  Solving for k, Initial residual = 0.0053612, Final residual = 8.93099e-07, No Iterations 2
ExecutionTime = 33.16 s  ClockTime = 33 s

Courant Number mean: 0.277963 max: 0.625399
Time = 0.454

GAMG:  Solving for cellDisplacementx, Initial residual = 0, Final residual = 0, No Iterations 0
GAMG:  Solving for cellDisplacementy, Initial residual = 0, Final residual = 0, No Iterations 0
GAMG:  Solving for cellDisplacementz, Initial residual = 0, Final residual = 0, No Iterations 0
PIMPLE: iteration 1
DILUPBiCG:  Solving for Ux, Initial residual = 0.00654448, Final residual = 2.60575e-05, No Iterations 1
DILUPBiCG:  Solving for Uy, Initial residual = 0.00114693, Final residual = 7.18672e-06, No Iterations 1
DILUPBiCG:  Solving for Uz, Initial residual = 0.0302301, Final residual = 7.67725e-05, No Iterations 1
GAMG:  Solving for p, Initial residual = 0.194487, Final residual = 0.00177413, No Iterations 8
GAMG:  Solving for p, Initial residual = 0.0350753, Final residual = 0.000345142, No Iterations 12
GAMG:  Solving for p, Initial residual = 0.0142435, Final residual = 0.000135126, No Iterations 8
time step continuity errors : sum local = 5.17472e-07, global = 1.11582e-07, cumulative = -9.0979e-07
GAMG:  Solving for p, Initial residual = 0.0708986, Final residual = 0.000625858, No Iterations 6
GAMG:  Solving for p, Initial residual = 0.0165705, Final residual = 0.000146743, No Iterations 14
GAMG:  Solving for p, Initial residual = 0.00697468, Final residual = 6.62451e-05, No Iterations 4
time step continuity errors : sum local = 2.53128e-07, global = 8.61982e-08, cumulative = -8.23592e-07
PIMPLE: iteration 2
DILUPBiCG:  Solving for Ux, Initial residual = 0.00249056, Final residual = 2.67845e-05, No Iterations 1
DILUPBiCG:  Solving for Uy, Initial residual = 0.000417272, Final residual = 3.38431e-06, No Iterations 1
DILUPBiCG:  Solving for Uz, Initial residual = 0.00561312, Final residual = 1.74978e-05, No Iterations 1
GAMG:  Solving for p, Initial residual = 0.0801657, Final residual = 0.000463918, No Iterations 4
GAMG:  Solving for p, Initial residual = 0.0189137, Final residual = 8.13923e-05, No Iterations 5
GAMG:  Solving for p, Initial residual = 0.00814648, Final residual = 5.01982e-05, No Iterations 5
time step continuity errors : sum local = 1.67401e-07, global = -6.24114e-08, cumulative = -8.86003e-07
GAMG:  Solving for p, Initial residual = 0.0379775, Final residual = 0.00015575, No Iterations 4
GAMG:  Solving for p, Initial residual = 0.0087142, Final residual = 4.96322e-05, No Iterations 5
GAMG:  Solving for p, Initial residual = 0.0038438, Final residual = 3.7027e-05, No Iterations 5
time step continuity errors : sum local = 1.23897e-07, global = 2.22075e-08, cumulative = -8.63796e-07
PIMPLE: iteration 3
DILUPBiCG:  Solving for Ux, Initial residual = 0.000899086, Final residual = 2.73442e-07, No Iterations 2
DILUPBiCG:  Solving for Uy, Initial residual = 0.000150939, Final residual = 1.98835e-06, No Iterations 1
DILUPBiCG:  Solving for Uz, Initial residual = 0.00330615, Final residual = 9.40751e-07, No Iterations 2
GAMG:  Solving for p, Initial residual = 0.063472, Final residual = 0.000431444, No Iterations 4
GAMG:  Solving for p, Initial residual = 0.0137381, Final residual = 0.000111764, No Iterations 9
GAMG:  Solving for p, Initial residual = 0.00621, Final residual = 6.02504e-05, No Iterations 4
time step continuity errors : sum local = 2.14784e-07, global = -7.68321e-08, cumulative = -9.40628e-07
GAMG:  Solving for p, Initial residual = 0.0047872, Final residual = 3.90654e-05, No Iterations 5
GAMG:  Solving for p, Initial residual = 0.00233543, Final residual = 2.12082e-05, No Iterations 4
GAMG:  Solving for p, Initial residual = 0.000869684, Final residual = 9.39772e-07, No Iterations 32
time step continuity errors : sum local = 3.33969e-09, global = 1.02412e-09, cumulative = -9.39604e-07
DILUPBiCG:  Solving for omega, Initial residual = 0.00175142, Final residual = 2.60032e-06, No Iterations 1
DILUPBiCG:  Solving for k, Initial residual = 0.00512171, Final residual = 9.93818e-07, No Iterations 2
ExecutionTime = 43.57 s  ClockTime = 44 s

Courant Number mean: 0.27673 max: 0.622388
Time = 0.455

GAMG:  Solving for cellDisplacementx, Initial residual = 0, Final residual = 0, No Iterations 0
GAMG:  Solving for cellDisplacementy, Initial residual = 0, Final residual = 0, No Iterations 0
GAMG:  Solving for cellDisplacementz, Initial residual = 0, Final residual = 0, No Iterations 0
PIMPLE: iteration 1
DILUPBiCG:  Solving for Ux, Initial residual = 0.0091883, Final residual = 3.71192e-05, No Iterations 1
DILUPBiCG:  Solving for Uy, Initial residual = 0.00146495, Final residual = 4.83938e-06, No Iterations 1
DILUPBiCG:  Solving for Uz, Initial residual = 0.0184021, Final residual = 4.85899e-05, No Iterations 1
GAMG:  Solving for p, Initial residual = 0.162616, Final residual = 0.00154115, No Iterations 8
GAMG:  Solving for p, Initial residual = 0.0264679, Final residual = 0.00025198, No Iterations 14
GAMG:  Solving for p, Initial residual = 0.0101063, Final residual = 9.95383e-05, No Iterations 12
time step continuity errors : sum local = 4.47017e-07, global = 1.34403e-07, cumulative = -8.052e-07
GAMG:  Solving for p, Initial residual = 0.0625139, Final residual = 0.000531233, No Iterations 6
GAMG:  Solving for p, Initial residual = 0.012695, Final residual = 0.000117068, No Iterations 14
GAMG:  Solving for p, Initial residual = 0.00507014, Final residual = 4.62416e-05, No Iterations 12
time step continuity errors : sum local = 2.06355e-07, global = 6.20944e-08, cumulative = -7.43106e-07
PIMPLE: iteration 2
DILUPBiCG:  Solving for Ux, Initial residual = 0.00327464, Final residual = 4.28494e-05, No Iterations 1
DILUPBiCG:  Solving for Uy, Initial residual = 0.000541255, Final residual = 3.12578e-06, No Iterations 1
DILUPBiCG:  Solving for Uz, Initial residual = 0.00462216, Final residual = 1.67863e-05, No Iterations 1
GAMG:  Solving for p, Initial residual = 0.0654595, Final residual = 0.000221794, No Iterations 4
GAMG:  Solving for p, Initial residual = 0.0129075, Final residual = 0.000102572, No Iterations 4
GAMG:  Solving for p, Initial residual = 0.00564463, Final residual = 5.38855e-05, No Iterations 5
time step continuity errors : sum local = 2.08029e-07, global = 3.95836e-08, cumulative = -7.03522e-07
GAMG:  Solving for p, Initial residual = 0.0319341, Final residual = 0.000102979, No Iterations 4
GAMG:  Solving for p, Initial residual = 0.00611161, Final residual = 4.56705e-05, No Iterations 4
GAMG:  Solving for p, Initial residual = 0.0027313, Final residual = 2.26367e-05, No Iterations 5
time step continuity errors : sum local = 8.77655e-08, global = 1.72109e-08, cumulative = -6.86311e-07
PIMPLE: iteration 3
DILUPBiCG:  Solving for Ux, Initial residual = 0.00107601, Final residual = 8.05182e-07, No Iterations 2
DILUPBiCG:  Solving for Uy, Initial residual = 0.000179255, Final residual = 4.5513e-06, No Iterations 1
DILUPBiCG:  Solving for Uz, Initial residual = 0.00280482, Final residual = 6.99164e-07, No Iterations 2
GAMG:  Solving for p, Initial residual = 0.0526706, Final residual = 0.000234923, No Iterations 5
GAMG:  Solving for p, Initial residual = 0.0120545, Final residual = 0.000113668, No Iterations 4
GAMG:  Solving for p, Initial residual = 0.00555904, Final residual = 5.28204e-05, No Iterations 10
time step continuity errors : sum local = 2.21786e-07, global = -6.07055e-08, cumulative = -7.47017e-07
GAMG:  Solving for p, Initial residual = 0.00414225, Final residual = 3.67735e-05, No Iterations 11
GAMG:  Solving for p, Initial residual = 0.00215601, Final residual = 1.93169e-05, No Iterations 6
GAMG:  Solving for p, Initial residual = 0.00079488, Final residual = 9.46689e-07, No Iterations 36
time step continuity errors : sum local = 3.93993e-09, global = 1.16428e-09, cumulative = -7.45853e-07
DILUPBiCG:  Solving for omega, Initial residual = 0.00157246, Final residual = 2.37041e-06, No Iterations 1
DILUPBiCG:  Solving for k, Initial residual = 0.0050114, Final residual = 9.56142e-07, No Iterations 2
ExecutionTime = 53.95 s  ClockTime = 54 s

Courant Number mean: 0.275155 max: 0.618471
Time = 0.456

GAMG:  Solving for cellDisplacementx, Initial residual = 0, Final residual = 0, No Iterations 0
GAMG:  Solving for cellDisplacementy, Initial residual = 0, Final residual = 0, No Iterations 0
GAMG:  Solving for cellDisplacementz, Initial residual = 0, Final residual = 0, No Iterations 0
PIMPLE: iteration 1
DILUPBiCG:  Solving for Ux, Initial residual = 0.0117394, Final residual = 4.61745e-05, No Iterations 1
DILUPBiCG:  Solving for Uy, Initial residual = 0.00186742, Final residual = 5.39623e-06, No Iterations 1
DILUPBiCG:  Solving for Uz, Initial residual = 0.0159029, Final residual = 4.72927e-05, No Iterations 1
GAMG:  Solving for p, Initial residual = 0.152159, Final residual = 0.00147423, No Iterations 8
GAMG:  Solving for p, Initial residual = 0.0219439, Final residual = 0.000209911, No Iterations 16
GAMG:  Solving for p, Initial residual = 0.00835106, Final residual = 7.04792e-05, No Iterations 14
time step continuity errors : sum local = 3.65413e-07, global = 1.14171e-07, cumulative = -6.31682e-07
GAMG:  Solving for p, Initial residual = 0.0591043, Final residual = 0.000514583, No Iterations 6
GAMG:  Solving for p, Initial residual = 0.0106728, Final residual = 9.90915e-05, No Iterations 16
GAMG:  Solving for p, Initial residual = 0.00434583, Final residual = 3.8818e-05, No Iterations 12
time step continuity errors : sum local = 1.99857e-07, global = 5.97388e-08, cumulative = -5.71943e-07
PIMPLE: iteration 2
DILUPBiCG:  Solving for Ux, Initial residual = 0.00404392, Final residual = 5.29059e-05, No Iterations 1
DILUPBiCG:  Solving for Uy, Initial residual = 0.000669484, Final residual = 3.2443e-06, No Iterations 1
DILUPBiCG:  Solving for Uz, Initial residual = 0.00435086, Final residual = 1.66716e-05, No Iterations 1
GAMG:  Solving for p, Initial residual = 0.0610296, Final residual = 0.000342458, No Iterations 4
GAMG:  Solving for p, Initial residual = 0.0109222, Final residual = 9.92179e-05, No Iterations 9
GAMG:  Solving for p, Initial residual = 0.00488408, Final residual = 4.45268e-05, No Iterations 6
time step continuity errors : sum local = 1.9733e-07, global = 5.56513e-08, cumulative = -5.16292e-07
GAMG:  Solving for p, Initial residual = 0.0300686, Final residual = 0.00014321, No Iterations 4
GAMG:  Solving for p, Initial residual = 0.00516856, Final residual = 5.07262e-05, No Iterations 8
GAMG:  Solving for p, Initial residual = 0.00235234, Final residual = 2.18812e-05, No Iterations 8
time step continuity errors : sum local = 9.73475e-08, global = -3.43625e-08, cumulative = -5.50654e-07
PIMPLE: iteration 3
DILUPBiCG:  Solving for Ux, Initial residual = 0.0012712, Final residual = 1.40468e-06, No Iterations 2
DILUPBiCG:  Solving for Uy, Initial residual = 0.000209698, Final residual = 4.61701e-06, No Iterations 1
DILUPBiCG:  Solving for Uz, Initial residual = 0.00340161, Final residual = 9.82261e-07, No Iterations 2
GAMG:  Solving for p, Initial residual = 0.0479401, Final residual = 0.000342878, No Iterations 5
GAMG:  Solving for p, Initial residual = 0.0114256, Final residual = 9.59902e-05, No Iterations 10
GAMG:  Solving for p, Initial residual = 0.0052332, Final residual = 5.18229e-05, No Iterations 4
time step continuity errors : sum local = 2.49774e-07, global = -8.46701e-08, cumulative = -6.35324e-07
GAMG:  Solving for p, Initial residual = 0.00372926, Final residual = 3.46386e-05, No Iterations 8
GAMG:  Solving for p, Initial residual = 0.00199144, Final residual = 1.81129e-05, No Iterations 5
GAMG:  Solving for p, Initial residual = 0.000746839, Final residual = 9.10908e-07, No Iterations 36
time step continuity errors : sum local = 4.38301e-09, global = 1.29517e-09, cumulative = -6.34029e-07
DILUPBiCG:  Solving for omega, Initial residual = 0.00142169, Final residual = 2.17045e-06, No Iterations 1
DILUPBiCG:  Solving for k, Initial residual = 0.00496993, Final residual = 1.53813e-06, No Iterations 2
ExecutionTime = 64.21 s  ClockTime = 65 s

Courant Number mean: 0.273242 max: 0.613704
Time = 0.457

GAMG:  Solving for cellDisplacementx, Initial residual = 0, Final residual = 0, No Iterations 0
GAMG:  Solving for cellDisplacementy, Initial residual = 0, Final residual = 0, No Iterations 0
GAMG:  Solving for cellDisplacementz, Initial residual = 0, Final residual = 0, No Iterations 0
PIMPLE: iteration 1
DILUPBiCG:  Solving for Ux, Initial residual = 0.0143321, Final residual = 5.48224e-05, No Iterations 1
DILUPBiCG:  Solving for Uy, Initial residual = 0.00227495, Final residual = 6.08098e-06, No Iterations 1
DILUPBiCG:  Solving for Uz, Initial residual = 0.0147402, Final residual = 4.4326e-05, No Iterations 1
GAMG:  Solving for p, Initial residual = 0.147592, Final residual = 0.00140439, No Iterations 8
GAMG:  Solving for p, Initial residual = 0.0200587, Final residual = 0.000171829, No Iterations 18
GAMG:  Solving for p, Initial residual = 0.00773875, Final residual = 7.03311e-05, No Iterations 12
time step continuity errors : sum local = 4.15659e-07, global = 1.26054e-07, cumulative = -5.07975e-07
GAMG:  Solving for p, Initial residual = 0.0577859, Final residual = 0.000492451, No Iterations 6
GAMG:  Solving for p, Initial residual = 0.00974843, Final residual = 9.45179e-05, No Iterations 16
GAMG:  Solving for p, Initial residual = 0.00405104, Final residual = 3.80044e-05, No Iterations 12
time step continuity errors : sum local = 2.22684e-07, global = 6.71164e-08, cumulative = -4.40859e-07
PIMPLE: iteration 2
DILUPBiCG:  Solving for Ux, Initial residual = 0.00480942, Final residual = 5.36128e-05, No Iterations 1
DILUPBiCG:  Solving for Uy, Initial residual = 0.000797602, Final residual = 3.30907e-06, No Iterations 1
DILUPBiCG:  Solving for Uz, Initial residual = 0.00422276, Final residual = 1.63439e-05, No Iterations 1
GAMG:  Solving for p, Initial residual = 0.059414, Final residual = 0.000301348, No Iterations 4
GAMG:  Solving for p, Initial residual = 0.00994805, Final residual = 9.00244e-05, No Iterations 14
GAMG:  Solving for p, Initial residual = 0.00474094, Final residual = 4.68125e-05, No Iterations 7
time step continuity errors : sum local = 2.3476e-07, global = 7.85851e-08, cumulative = -3.62274e-07
GAMG:  Solving for p, Initial residual = 0.0294856, Final residual = 0.000292164, No Iterations 3
GAMG:  Solving for p, Initial residual = 0.00472672, Final residual = 4.05248e-05, No Iterations 11
GAMG:  Solving for p, Initial residual = 0.00226724, Final residual = 2.07079e-05, No Iterations 8
time step continuity errors : sum local = 1.04251e-07, global = -3.70649e-08, cumulative = -3.99339e-07
PIMPLE: iteration 3
DILUPBiCG:  Solving for Ux, Initial residual = 0.00145443, Final residual = 1.68951e-06, No Iterations 2
DILUPBiCG:  Solving for Uy, Initial residual = 0.00023949, Final residual = 5.42277e-06, No Iterations 1
DILUPBiCG:  Solving for Uz, Initial residual = 0.00379879, Final residual = 1.12322e-06, No Iterations 2
GAMG:  Solving for p, Initial residual = 0.0450562, Final residual = 0.000381307, No Iterations 5
GAMG:  Solving for p, Initial residual = 0.0109922, Final residual = 0.00010722, No Iterations 4
GAMG:  Solving for p, Initial residual = 0.00481874, Final residual = 4.57876e-05, No Iterations 12
time step continuity errors : sum local = 2.52499e-07, global = -7.3539e-08, cumulative = -4.72878e-07
GAMG:  Solving for p, Initial residual = 0.00354941, Final residual = 2.57742e-05, No Iterations 8
GAMG:  Solving for p, Initial residual = 0.00196435, Final residual = 1.38103e-05, No Iterations 5
GAMG:  Solving for p, Initial residual = 0.000719292, Final residual = 9.14702e-07, No Iterations 32
time step continuity errors : sum local = 5.01954e-09, global = 1.48592e-09, cumulative = -4.71392e-07
DILUPBiCG:  Solving for omega, Initial residual = 0.0012913, Final residual = 1.99466e-06, No Iterations 1
DILUPBiCG:  Solving for k, Initial residual = 0.00495363, Final residual = 2.79284e-06, No Iterations 2
ExecutionTime = 75.56 s  ClockTime = 76 s

Courant Number mean: 0.270997 max: 0.608202
Time = 0.458

GAMG:  Solving for cellDisplacementx, Initial residual = 0, Final residual = 0, No Iterations 0
GAMG:  Solving for cellDisplacementy, Initial residual = 0, Final residual = 0, No Iterations 0
GAMG:  Solving for cellDisplacementz, Initial residual = 0, Final residual = 0, No Iterations 0
PIMPLE: iteration 1
DILUPBiCG:  Solving for Ux, Initial residual = 0.0169309, Final residual = 6.44482e-05, No Iterations 1
DILUPBiCG:  Solving for Uy, Initial residual = 0.00268827, Final residual = 6.86143e-06, No Iterations 1
DILUPBiCG:  Solving for Uz, Initial residual = 0.0145472, Final residual = 4.41694e-05, No Iterations 1
GAMG:  Solving for p, Initial residual = 0.143238, Final residual = 0.00134309, No Iterations 8
GAMG:  Solving for p, Initial residual = 0.0184657, Final residual = 0.000167101, No Iterations 18
GAMG:  Solving for p, Initial residual = 0.00721882, Final residual = 6.79424e-05, No Iterations 12
time step continuity errors : sum local = 4.50498e-07, global = 1.35913e-07, cumulative = -3.35478e-07
GAMG:  Solving for p, Initial residual = 0.0565957, Final residual = 0.000476337, No Iterations 6
GAMG:  Solving for p, Initial residual = 0.00903432, Final residual = 7.88455e-05, No Iterations 18
GAMG:  Solving for p, Initial residual = 0.00383713, Final residual = 3.70983e-05, No Iterations 10
time step continuity errors : sum local = 2.44229e-07, global = 6.45804e-08, cumulative = -2.70898e-07
PIMPLE: iteration 2
DILUPBiCG:  Solving for Ux, Initial residual = 0.00557341, Final residual = 4.6851e-05, No Iterations 1
DILUPBiCG:  Solving for Uy, Initial residual = 0.000925499, Final residual = 3.38533e-06, No Iterations 1
DILUPBiCG:  Solving for Uz, Initial residual = 0.00414532, Final residual = 1.54609e-05, No Iterations 1
GAMG:  Solving for p, Initial residual = 0.0580481, Final residual = 0.000304656, No Iterations 4
GAMG:  Solving for p, Initial residual = 0.00944709, Final residual = 9.27724e-05, No Iterations 14
GAMG:  Solving for p, Initial residual = 0.00455744, Final residual = 4.44326e-05, No Iterations 8
time step continuity errors : sum local = 2.49127e-07, global = -9.18302e-08, cumulative = -3.62728e-07
GAMG:  Solving for p, Initial residual = 0.0289522, Final residual = 0.000130793, No Iterations 4
GAMG:  Solving for p, Initial residual = 0.00451598, Final residual = 4.39085e-05, No Iterations 12
GAMG:  Solving for p, Initial residual = 0.00212126, Final residual = 1.98163e-05, No Iterations 8
time step continuity errors : sum local = 1.1156e-07, global = -3.96481e-08, cumulative = -4.02376e-07
PIMPLE: iteration 3
DILUPBiCG:  Solving for Ux, Initial residual = 0.00163612, Final residual = 1.56333e-06, No Iterations 2
DILUPBiCG:  Solving for Uy, Initial residual = 0.000268943, Final residual = 5.81354e-06, No Iterations 1
DILUPBiCG:  Solving for Uz, Initial residual = 0.00435488, Final residual = 1.2558e-06, No Iterations 2
GAMG:  Solving for p, Initial residual = 0.0433953, Final residual = 0.000354673, No Iterations 5
GAMG:  Solving for p, Initial residual = 0.0107391, Final residual = 9.50324e-05, No Iterations 5
GAMG:  Solving for p, Initial residual = 0.00465116, Final residual = 3.93747e-05, No Iterations 10
time step continuity errors : sum local = 2.43329e-07, global = -6.32311e-08, cumulative = -4.65607e-07
GAMG:  Solving for p, Initial residual = 0.00334536, Final residual = 2.41335e-05, No Iterations 6
GAMG:  Solving for p, Initial residual = 0.00190147, Final residual = 1.6819e-05, No Iterations 5
GAMG:  Solving for p, Initial residual = 0.000700142, Final residual = 8.86243e-07, No Iterations 34
time step continuity errors : sum local = 5.46883e-09, global = 1.60608e-09, cumulative = -4.64001e-07
DILUPBiCG:  Solving for omega, Initial residual = 0.00117696, Final residual = 1.84346e-06, No Iterations 1
DILUPBiCG:  Solving for k, Initial residual = 0.00494302, Final residual = 2.90588e-06, No Iterations 2
ExecutionTime = 84.65 s  ClockTime = 85 s

Courant Number mean: 0.268428 max: 0.602063
Time = 0.459

GAMG:  Solving for cellDisplacementx, Initial residual = 0, Final residual = 0, No Iterations 0
GAMG:  Solving for cellDisplacementy, Initial residual = 0, Final residual = 0, No Iterations 0
GAMG:  Solving for cellDisplacementz, Initial residual = 0, Final residual = 0, No Iterations 0
PIMPLE: iteration 1
DILUPBiCG:  Solving for Ux, Initial residual = 0.0195383, Final residual = 7.53279e-05, No Iterations 1
DILUPBiCG:  Solving for Uy, Initial residual = 0.00310029, Final residual = 7.70096e-06, No Iterations 1
DILUPBiCG:  Solving for Uz, Initial residual = 0.0141191, Final residual = 4.23152e-05, No Iterations 1
GAMG:  Solving for p, Initial residual = 0.140166, Final residual = 0.00128564, No Iterations 8
GAMG:  Solving for p, Initial residual = 0.0175016, Final residual = 0.000161493, No Iterations 18
GAMG:  Solving for p, Initial residual = 0.00694223, Final residual = 6.61357e-05, No Iterations 12
time step continuity errors : sum local = 4.86144e-07, global = 1.47009e-07, cumulative = -3.16993e-07
GAMG:  Solving for p, Initial residual = 0.055833, Final residual = 0.000458874, No Iterations 6
GAMG:  Solving for p, Initial residual = 0.00863613, Final residual = 7.64182e-05, No Iterations 18
GAMG:  Solving for p, Initial residual = 0.00369566, Final residual = 3.6682e-05, No Iterations 10
time step continuity errors : sum local = 2.67824e-07, global = 7.08851e-08, cumulative = -2.46107e-07
PIMPLE: iteration 2
DILUPBiCG:  Solving for Ux, Initial residual = 0.00632865, Final residual = 3.66552e-05, No Iterations 1
DILUPBiCG:  Solving for Uy, Initial residual = 0.00105248, Final residual = 3.48857e-06, No Iterations 1
DILUPBiCG:  Solving for Uz, Initial residual = 0.00409259, Final residual = 1.47325e-05, No Iterations 1
GAMG:  Solving for p, Initial residual = 0.0571885, Final residual = 0.00034542, No Iterations 4
GAMG:  Solving for p, Initial residual = 0.00921829, Final residual = 9.16499e-05, No Iterations 14
GAMG:  Solving for p, Initial residual = 0.00440794, Final residual = 4.32963e-05, No Iterations 8
time step continuity errors : sum local = 2.68401e-07, global = -9.47261e-08, cumulative = -3.40834e-07
GAMG:  Solving for p, Initial residual = 0.0286233, Final residual = 0.000147208, No Iterations 4
GAMG:  Solving for p, Initial residual = 0.00439775, Final residual = 4.26764e-05, No Iterations 12
GAMG:  Solving for p, Initial residual = 0.00203939, Final residual = 1.93319e-05, No Iterations 8
time step continuity errors : sum local = 1.20373e-07, global = -4.0956e-08, cumulative = -3.8179e-07
PIMPLE: iteration 3
DILUPBiCG:  Solving for Ux, Initial residual = 0.00181262, Final residual = 1.201e-06, No Iterations 2
DILUPBiCG:  Solving for Uy, Initial residual = 0.000298281, Final residual = 6.26302e-06, No Iterations 1
DILUPBiCG:  Solving for Uz, Initial residual = 0.00475577, Final residual = 1.33656e-06, No Iterations 2
GAMG:  Solving for p, Initial residual = 0.0422354, Final residual = 0.000386793, No Iterations 5
GAMG:  Solving for p, Initial residual = 0.0102874, Final residual = 7.94322e-05, No Iterations 9
GAMG:  Solving for p, Initial residual = 0.00454685, Final residual = 4.21635e-05, No Iterations 8
time step continuity errors : sum local = 2.88582e-07, global = -6.36058e-08, cumulative = -4.45395e-07
GAMG:  Solving for p, Initial residual = 0.00317524, Final residual = 3.11421e-05, No Iterations 14
GAMG:  Solving for p, Initial residual = 0.00181114, Final residual = 1.61294e-05, No Iterations 4
GAMG:  Solving for p, Initial residual = 0.000671438, Final residual = 9.85301e-07, No Iterations 38
time step continuity errors : sum local = 6.74521e-09, global = 1.99886e-09, cumulative = -4.43397e-07
DILUPBiCG:  Solving for omega, Initial residual = 0.00107541, Final residual = 1.71312e-06, No Iterations 1
DILUPBiCG:  Solving for k, Initial residual = 0.00492704, Final residual = 2.05023e-06, No Iterations 2
ExecutionTime = 95.08 s  ClockTime = 95 s

Courant Number mean: 0.265545 max: 0.59544
Time = 0.46

GAMG:  Solving for cellDisplacementx, Initial residual = 0, Final residual = 0, No Iterations 0
GAMG:  Solving for cellDisplacementy, Initial residual = 0, Final residual = 0, No Iterations 0
GAMG:  Solving for cellDisplacementz, Initial residual = 0, Final residual = 0, No Iterations 0
PIMPLE: iteration 1
DILUPBiCG:  Solving for Ux, Initial residual = 0.0221283, Final residual = 8.69746e-05, No Iterations 1
DILUPBiCG:  Solving for Uy, Initial residual = 0.00351185, Final residual = 8.57338e-06, No Iterations 1
DILUPBiCG:  Solving for Uz, Initial residual = 0.0139828, Final residual = 4.1455e-05, No Iterations 1
GAMG:  Solving for p, Initial residual = 0.137401, Final residual = 0.00123859, No Iterations 8
GAMG:  Solving for p, Initial residual = 0.0167059, Final residual = 0.00015753, No Iterations 18
GAMG:  Solving for p, Initial residual = 0.00668776, Final residual = 6.42205e-05, No Iterations 12
time step continuity errors : sum local = 5.17875e-07, global = 1.56287e-07, cumulative = -2.8711e-07
GAMG:  Solving for p, Initial residual = 0.0550963, Final residual = 0.000445626, No Iterations 6
GAMG:  Solving for p, Initial residual = 0.00828987, Final residual = 7.48208e-05, No Iterations 18
GAMG:  Solving for p, Initial residual = 0.00357288, Final residual = 3.53954e-05, No Iterations 10
time step continuity errors : sum local = 2.83675e-07, global = 7.46744e-08, cumulative = -2.12435e-07
PIMPLE: iteration 2
DILUPBiCG:  Solving for Ux, Initial residual = 0.00707662, Final residual = 3.18467e-05, No Iterations 1
DILUPBiCG:  Solving for Uy, Initial residual = 0.00117851, Final residual = 3.61463e-06, No Iterations 1
DILUPBiCG:  Solving for Uz, Initial residual = 0.00404052, Final residual = 1.40401e-05, No Iterations 1
GAMG:  Solving for p, Initial residual = 0.0563453, Final residual = 0.000377394, No Iterations 4
GAMG:  Solving for p, Initial residual = 0.00902917, Final residual = 7.89803e-05, No Iterations 16
GAMG:  Solving for p, Initial residual = 0.00433094, Final residual = 4.24586e-05, No Iterations 7
time step continuity errors : sum local = 2.88181e-07, global = 1.01486e-07, cumulative = -1.1095e-07
GAMG:  Solving for p, Initial residual = 0.028333, Final residual = 0.000155252, No Iterations 4
GAMG:  Solving for p, Initial residual = 0.00430165, Final residual = 3.62514e-05, No Iterations 14
GAMG:  Solving for p, Initial residual = 0.00200236, Final residual = 1.7412e-05, No Iterations 8
time step continuity errors : sum local = 1.18809e-07, global = -4.13505e-08, cumulative = -1.523e-07
PIMPLE: iteration 3
DILUPBiCG:  Solving for Ux, Initial residual = 0.00198768, Final residual = 8.06767e-07, No Iterations 2
DILUPBiCG:  Solving for Uy, Initial residual = 0.000327223, Final residual = 6.5783e-06, No Iterations 1
DILUPBiCG:  Solving for Uz, Initial residual = 0.00518971, Final residual = 1.43846e-06, No Iterations 2
GAMG:  Solving for p, Initial residual = 0.0413989, Final residual = 0.000376231, No Iterations 5
GAMG:  Solving for p, Initial residual = 0.00993583, Final residual = 8.17178e-05, No Iterations 11
GAMG:  Solving for p, Initial residual = 0.00448883, Final residual = 4.46021e-05, No Iterations 8
time step continuity errors : sum local = 3.35711e-07, global = -7.48563e-08, cumulative = -2.27157e-07
GAMG:  Solving for p, Initial residual = 0.00304374, Final residual = 2.80651e-05, No Iterations 16
GAMG:  Solving for p, Initial residual = 0.00173627, Final residual = 1.47044e-05, No Iterations 4
GAMG:  Solving for p, Initial residual = 0.000649461, Final residual = 9.18186e-07, No Iterations 38
time step continuity errors : sum local = 6.90733e-09, global = 2.04646e-09, cumulative = -2.2511e-07
DILUPBiCG:  Solving for omega, Initial residual = 0.000984312, Final residual = 1.60433e-06, No Iterations 1
DILUPBiCG:  Solving for k, Initial residual = 0.00491835, Final residual = 1.27462e-06, No Iterations 2
ExecutionTime = 102.6 s  ClockTime = 103 s

End

