/*---------------------------------------------------------------------------*\
| =========                 |                                                 |
| \\      /  F ield         | OpenFOAM: The Open Source CFD Toolbox           |
|  \\    /   O peration     | Version:  2.3.1                                 |
|   \\  /    A nd           | Web:      www.OpenFOAM.org                      |
|    \\/     M anipulation  |                                                 |
\*---------------------------------------------------------------------------*/
Build  : 2.3.1-262087cdf8db
Exec   : pimpleDyMFoam
Date   : Jun 04 2023
Time   : 16:49:48
Host   : "jcosson-VirtualBox"
PID    : 2907
Case   : /home/jcosson/workspace/henersj_shootingdata/calcs/moderate_deformed/primal/10_intervals_04-06-23/sweep1/interval3
nProcs : 1
sigFpe : Enabling floating point exception trapping (FOAM_SIGFPE).
fileModificationChecking : Monitoring run-time modified files using timeStampMaster
allowSystemOperations : Allowing user-supplied system call operations

// * * * * * * * * * * * * * * * * * * * * * * * * * * * * * * * * * * * * * //
Create time

Create mesh for time = 0.42

Selecting dynamicFvMesh dynamicMotionSolverFvMesh
Selecting motion solver: displacementLaplacian
Selecting motion diffusion: quadratic
Selecting motion diffusion: quadratic
Selecting motion diffusion: inverseDistance

PIMPLE: no residual control data found. Calculations will employ 3 corrector loops

Reading field p

Reading field U

Reading/calculating face flux field phi

Selecting incompressible transport model Newtonian
Selecting turbulence model type RASModel
Selecting RAS turbulence model kOmegaSST
kOmegaSSTCoeffs
{
    alphaK1         0.85034;
    alphaK2         1;
    alphaOmega1     0.5;
    alphaOmega2     0.85616;
    gamma1          0.5532;
    gamma2          0.4403;
    beta1           0.075;
    beta2           0.0828;
    betaStar        0.09;
    a1              0.31;
    c1              10;
    Cmu             0.09;
    b1              1;
    F3              false;
}

Reading/calculating face velocity Uf

No finite volume options present

Courant Number mean: 0.160256 max: 0.357213

Starting time loop

Courant Number mean: 0.160256 max: 0.357213
Time = 0.421

GAMG:  Solving for cellDisplacementx, Initial residual = 0, Final residual = 0, No Iterations 0
GAMG:  Solving for cellDisplacementy, Initial residual = 0, Final residual = 0, No Iterations 0
GAMG:  Solving for cellDisplacementz, Initial residual = 0, Final residual = 0, No Iterations 0
PIMPLE: iteration 1
DILUPBiCG:  Solving for Ux, Initial residual = 0.0626, Final residual = 0.000233129, No Iterations 1
DILUPBiCG:  Solving for Uy, Initial residual = 0.0109552, Final residual = 2.48292e-05, No Iterations 1
DILUPBiCG:  Solving for Uz, Initial residual = 0.255422, Final residual = 0.000729817, No Iterations 1
GAMG:  Solving for p, Initial residual = 0.274295, Final residual = 0.00240101, No Iterations 11
GAMG:  Solving for p, Initial residual = 0.0630215, Final residual = 0.000547353, No Iterations 11
GAMG:  Solving for p, Initial residual = 0.0207879, Final residual = 0.000204509, No Iterations 13
time step continuity errors : sum local = 2.24648e-06, global = 9.59733e-07, cumulative = 9.59733e-07
GAMG:  Solving for p, Initial residual = 0.117726, Final residual = 0.00111183, No Iterations 9
GAMG:  Solving for p, Initial residual = 0.0303989, Final residual = 0.000253994, No Iterations 11
GAMG:  Solving for p, Initial residual = 0.0110324, Final residual = 9.79608e-05, No Iterations 10
time step continuity errors : sum local = 1.08618e-06, global = -2.82632e-07, cumulative = 6.77102e-07
PIMPLE: iteration 2
DILUPBiCG:  Solving for Ux, Initial residual = 0.015446, Final residual = 8.92722e-05, No Iterations 1
DILUPBiCG:  Solving for Uy, Initial residual = 0.00660026, Final residual = 2.63709e-05, No Iterations 1
DILUPBiCG:  Solving for Uz, Initial residual = 0.0451023, Final residual = 0.000118934, No Iterations 1
GAMG:  Solving for p, Initial residual = 0.113335, Final residual = 0.00104285, No Iterations 6
GAMG:  Solving for p, Initial residual = 0.0335911, Final residual = 0.000268413, No Iterations 8
GAMG:  Solving for p, Initial residual = 0.0127375, Final residual = 0.000111648, No Iterations 10
time step continuity errors : sum local = 1.02597e-06, global = 2.61881e-07, cumulative = 9.38982e-07
GAMG:  Solving for p, Initial residual = 0.0586161, Final residual = 0.000550205, No Iterations 6
GAMG:  Solving for p, Initial residual = 0.0166211, Final residual = 0.000142127, No Iterations 8
GAMG:  Solving for p, Initial residual = 0.00624072, Final residual = 5.15935e-05, No Iterations 12
time step continuity errors : sum local = 4.75943e-07, global = 1.26327e-07, cumulative = 1.06531e-06
PIMPLE: iteration 3
DILUPBiCG:  Solving for Ux, Initial residual = 0.00250512, Final residual = 1.25043e-06, No Iterations 2
DILUPBiCG:  Solving for Uy, Initial residual = 0.00356487, Final residual = 2.01953e-06, No Iterations 2
DILUPBiCG:  Solving for Uz, Initial residual = 0.0231178, Final residual = 6.59477e-06, No Iterations 2
GAMG:  Solving for p, Initial residual = 0.0457841, Final residual = 0.000440368, No Iterations 8
GAMG:  Solving for p, Initial residual = 0.0112601, Final residual = 0.000104095, No Iterations 14
GAMG:  Solving for p, Initial residual = 0.00398589, Final residual = 3.41839e-05, No Iterations 16
time step continuity errors : sum local = 3.64554e-07, global = 1.1001e-07, cumulative = 1.17532e-06
GAMG:  Solving for p, Initial residual = 0.00330445, Final residual = 3.02262e-05, No Iterations 13
GAMG:  Solving for p, Initial residual = 0.00247808, Final residual = 2.40983e-05, No Iterations 4
GAMG:  Solving for p, Initial residual = 0.000881785, Final residual = 9.95212e-07, No Iterations 34
time step continuity errors : sum local = 1.06582e-08, global = -3.18519e-09, cumulative = 1.17213e-06
DILUPBiCG:  Solving for omega, Initial residual = 0.00143352, Final residual = 1.33425e-06, No Iterations 1
DILUPBiCG:  Solving for k, Initial residual = 0.0043799, Final residual = 1.27382e-06, No Iterations 2
ExecutionTime = 13.35 s  ClockTime = 13 s

Courant Number mean: 0.164696 max: 0.358187
Time = 0.422

GAMG:  Solving for cellDisplacementx, Initial residual = 0, Final residual = 0, No Iterations 0
GAMG:  Solving for cellDisplacementy, Initial residual = 0, Final residual = 0, No Iterations 0
GAMG:  Solving for cellDisplacementz, Initial residual = 0, Final residual = 0, No Iterations 0
PIMPLE: iteration 1
DILUPBiCG:  Solving for Ux, Initial residual = 0.047899, Final residual = 0.000206906, No Iterations 1
DILUPBiCG:  Solving for Uy, Initial residual = 0.0304188, Final residual = 8.9409e-05, No Iterations 1
DILUPBiCG:  Solving for Uz, Initial residual = 0.141897, Final residual = 0.000281155, No Iterations 1
GAMG:  Solving for p, Initial residual = 0.279956, Final residual = 0.00227758, No Iterations 10
GAMG:  Solving for p, Initial residual = 0.0435713, Final residual = 0.000356053, No Iterations 10
GAMG:  Solving for p, Initial residual = 0.0179895, Final residual = 0.000132624, No Iterations 4
time step continuity errors : sum local = 1.61399e-06, global = -5.51385e-07, cumulative = 6.20749e-07
GAMG:  Solving for p, Initial residual = 0.109339, Final residual = 0.000810218, No Iterations 10
GAMG:  Solving for p, Initial residual = 0.024791, Final residual = 0.000239312, No Iterations 8
GAMG:  Solving for p, Initial residual = 0.0118414, Final residual = 0.000102216, No Iterations 4
time step continuity errors : sum local = 1.24055e-06, global = -3.45841e-07, cumulative = 2.74909e-07
PIMPLE: iteration 2
DILUPBiCG:  Solving for Ux, Initial residual = 0.0156122, Final residual = 8.91608e-05, No Iterations 1
DILUPBiCG:  Solving for Uy, Initial residual = 0.00474452, Final residual = 1.22312e-05, No Iterations 1
DILUPBiCG:  Solving for Uz, Initial residual = 0.0288661, Final residual = 0.000108727, No Iterations 1
GAMG:  Solving for p, Initial residual = 0.123745, Final residual = 0.00112101, No Iterations 10
GAMG:  Solving for p, Initial residual = 0.0321578, Final residual = 0.000273337, No Iterations 10
GAMG:  Solving for p, Initial residual = 0.0157467, Final residual = 0.000114493, No Iterations 5
time step continuity errors : sum local = 1.19856e-06, global = 3.39801e-07, cumulative = 6.14709e-07
GAMG:  Solving for p, Initial residual = 0.0608138, Final residual = 0.000599758, No Iterations 8
GAMG:  Solving for p, Initial residual = 0.0197651, Final residual = 0.000168782, No Iterations 8
GAMG:  Solving for p, Initial residual = 0.00894785, Final residual = 6.79706e-05, No Iterations 6
time step continuity errors : sum local = 7.09354e-07, global = -1.98079e-07, cumulative = 4.16631e-07
PIMPLE: iteration 3
DILUPBiCG:  Solving for Ux, Initial residual = 0.00504241, Final residual = 1.60158e-06, No Iterations 2
DILUPBiCG:  Solving for Uy, Initial residual = 0.00108115, Final residual = 5.08719e-07, No Iterations 2
DILUPBiCG:  Solving for Uz, Initial residual = 0.0195002, Final residual = 4.00522e-06, No Iterations 2
GAMG:  Solving for p, Initial residual = 0.0513919, Final residual = 0.000491161, No Iterations 7
GAMG:  Solving for p, Initial residual = 0.0147802, Final residual = 0.000126541, No Iterations 18
GAMG:  Solving for p, Initial residual = 0.00706705, Final residual = 6.43451e-05, No Iterations 10
time step continuity errors : sum local = 7.53487e-07, global = 1.93126e-07, cumulative = 6.09756e-07
GAMG:  Solving for p, Initial residual = 0.00519815, Final residual = 4.11168e-05, No Iterations 13
GAMG:  Solving for p, Initial residual = 0.00344562, Final residual = 3.35049e-05, No Iterations 4
GAMG:  Solving for p, Initial residual = 0.0013255, Final residual = 9.35024e-07, No Iterations 44
time step continuity errors : sum local = 1.08883e-08, global = -3.22606e-09, cumulative = 6.0653e-07
DILUPBiCG:  Solving for omega, Initial residual = 0.00132435, Final residual = 1.27292e-06, No Iterations 1
DILUPBiCG:  Solving for k, Initial residual = 0.00445493, Final residual = 1.21298e-06, No Iterations 2
ExecutionTime = 22.51 s  ClockTime = 23 s

Courant Number mean: 0.170261 max: 0.369478
Time = 0.423

GAMG:  Solving for cellDisplacementx, Initial residual = 0, Final residual = 0, No Iterations 0
GAMG:  Solving for cellDisplacementy, Initial residual = 0, Final residual = 0, No Iterations 0
GAMG:  Solving for cellDisplacementz, Initial residual = 0, Final residual = 0, No Iterations 0
PIMPLE: iteration 1
DILUPBiCG:  Solving for Ux, Initial residual = 0.0600968, Final residual = 0.00021207, No Iterations 1
DILUPBiCG:  Solving for Uy, Initial residual = 0.0110428, Final residual = 2.2262e-05, No Iterations 1
DILUPBiCG:  Solving for Uz, Initial residual = 0.125072, Final residual = 0.000278456, No Iterations 1
GAMG:  Solving for p, Initial residual = 0.188633, Final residual = 0.00160596, No Iterations 4
GAMG:  Solving for p, Initial residual = 0.0307493, Final residual = 0.00030682, No Iterations 20
GAMG:  Solving for p, Initial residual = 0.0130074, Final residual = 0.000118502, No Iterations 10
time step continuity errors : sum local = 1.57101e-06, global = -4.00652e-07, cumulative = 2.05878e-07
GAMG:  Solving for p, Initial residual = 0.0744988, Final residual = 0.000584533, No Iterations 4
GAMG:  Solving for p, Initial residual = 0.014894, Final residual = 0.000128585, No Iterations 20
GAMG:  Solving for p, Initial residual = 0.00681744, Final residual = 5.47381e-05, No Iterations 10
time step continuity errors : sum local = 7.3444e-07, global = -1.90408e-07, cumulative = 1.54704e-08
PIMPLE: iteration 2
DILUPBiCG:  Solving for Ux, Initial residual = 0.0172613, Final residual = 9.18272e-05, No Iterations 1
DILUPBiCG:  Solving for Uy, Initial residual = 0.0030035, Final residual = 7.21801e-06, No Iterations 1
DILUPBiCG:  Solving for Uz, Initial residual = 0.0101117, Final residual = 2.25165e-05, No Iterations 1
GAMG:  Solving for p, Initial residual = 0.0804617, Final residual = 0.000736187, No Iterations 4
GAMG:  Solving for p, Initial residual = 0.0188127, Final residual = 0.000165527, No Iterations 14
GAMG:  Solving for p, Initial residual = 0.00975373, Final residual = 8.84023e-05, No Iterations 5
time step continuity errors : sum local = 1.00923e-06, global = -3.82321e-07, cumulative = -3.66851e-07
GAMG:  Solving for p, Initial residual = 0.0409129, Final residual = 0.000328999, No Iterations 4
GAMG:  Solving for p, Initial residual = 0.00968734, Final residual = 9.10157e-05, No Iterations 12
GAMG:  Solving for p, Initial residual = 0.0047727, Final residual = 4.10792e-05, No Iterations 7
time step continuity errors : sum local = 4.72355e-07, global = -1.56765e-07, cumulative = -5.23616e-07
PIMPLE: iteration 3
DILUPBiCG:  Solving for Ux, Initial residual = 0.004485, Final residual = 1.58218e-06, No Iterations 2
DILUPBiCG:  Solving for Uy, Initial residual = 0.000745082, Final residual = 7.89889e-06, No Iterations 1
DILUPBiCG:  Solving for Uz, Initial residual = 0.0211792, Final residual = 6.11088e-06, No Iterations 2
GAMG:  Solving for p, Initial residual = 0.0356026, Final residual = 0.000342796, No Iterations 5
GAMG:  Solving for p, Initial residual = 0.00702084, Final residual = 6.791e-05, No Iterations 17
GAMG:  Solving for p, Initial residual = 0.00324626, Final residual = 2.72112e-05, No Iterations 10
time step continuity errors : sum local = 3.5293e-07, global = 9.23655e-08, cumulative = -4.3125e-07
GAMG:  Solving for p, Initial residual = 0.0021667, Final residual = 2.10004e-05, No Iterations 18
GAMG:  Solving for p, Initial residual = 0.00131456, Final residual = 1.21907e-05, No Iterations 4
GAMG:  Solving for p, Initial residual = 0.000493471, Final residual = 8.73985e-07, No Iterations 26
time step continuity errors : sum local = 1.13539e-08, global = -3.3788e-09, cumulative = -4.34629e-07
DILUPBiCG:  Solving for omega, Initial residual = 0.00123821, Final residual = 1.22349e-06, No Iterations 1
DILUPBiCG:  Solving for k, Initial residual = 0.00455774, Final residual = 1.27036e-06, No Iterations 2
ExecutionTime = 32.34 s  ClockTime = 32 s

Courant Number mean: 0.175976 max: 0.381194
Time = 0.424

GAMG:  Solving for cellDisplacementx, Initial residual = 0, Final residual = 0, No Iterations 0
GAMG:  Solving for cellDisplacementy, Initial residual = 0, Final residual = 0, No Iterations 0
GAMG:  Solving for cellDisplacementz, Initial residual = 0, Final residual = 0, No Iterations 0
PIMPLE: iteration 1
DILUPBiCG:  Solving for Ux, Initial residual = 0.0618271, Final residual = 0.000217475, No Iterations 1
DILUPBiCG:  Solving for Uy, Initial residual = 0.0104963, Final residual = 2.03861e-05, No Iterations 1
DILUPBiCG:  Solving for Uz, Initial residual = 0.0552691, Final residual = 0.000109809, No Iterations 1
GAMG:  Solving for p, Initial residual = 0.147455, Final residual = 0.0014519, No Iterations 4
GAMG:  Solving for p, Initial residual = 0.0201876, Final residual = 0.000195632, No Iterations 16
GAMG:  Solving for p, Initial residual = 0.00898443, Final residual = 7.67928e-05, No Iterations 4
time step continuity errors : sum local = 1.0557e-06, global = -4.12539e-07, cumulative = -8.47169e-07
GAMG:  Solving for p, Initial residual = 0.0623207, Final residual = 0.000554453, No Iterations 4
GAMG:  Solving for p, Initial residual = 0.0100043, Final residual = 8.99444e-05, No Iterations 14
GAMG:  Solving for p, Initial residual = 0.00453439, Final residual = 3.4601e-05, No Iterations 4
time step continuity errors : sum local = 4.76039e-07, global = -1.80588e-07, cumulative = -1.02776e-06
PIMPLE: iteration 2
DILUPBiCG:  Solving for Ux, Initial residual = 0.0171, Final residual = 8.62094e-05, No Iterations 1
DILUPBiCG:  Solving for Uy, Initial residual = 0.00292646, Final residual = 7.39504e-06, No Iterations 1
DILUPBiCG:  Solving for Uz, Initial residual = 0.0068035, Final residual = 2.95956e-05, No Iterations 1
GAMG:  Solving for p, Initial residual = 0.0658032, Final residual = 0.000515707, No Iterations 4
GAMG:  Solving for p, Initial residual = 0.0121125, Final residual = 0.00010976, No Iterations 14
GAMG:  Solving for p, Initial residual = 0.00554239, Final residual = 4.71564e-05, No Iterations 4
time step continuity errors : sum local = 5.48843e-07, global = 1.93435e-07, cumulative = -8.34322e-07
GAMG:  Solving for p, Initial residual = 0.0337094, Final residual = 0.000236663, No Iterations 4
GAMG:  Solving for p, Initial residual = 0.00605839, Final residual = 5.62851e-05, No Iterations 12
GAMG:  Solving for p, Initial residual = 0.00274084, Final residual = 2.54283e-05, No Iterations 4
time step continuity errors : sum local = 2.97086e-07, global = 1.06946e-07, cumulative = -7.27376e-07
PIMPLE: iteration 3
DILUPBiCG:  Solving for Ux, Initial residual = 0.0040597, Final residual = 1.39456e-06, No Iterations 2
DILUPBiCG:  Solving for Uy, Initial residual = 0.000740193, Final residual = 8.40062e-06, No Iterations 1
DILUPBiCG:  Solving for Uz, Initial residual = 0.00719335, Final residual = 1.96116e-06, No Iterations 2
GAMG:  Solving for p, Initial residual = 0.0355777, Final residual = 0.000227129, No Iterations 6
GAMG:  Solving for p, Initial residual = 0.00741453, Final residual = 7.02965e-05, No Iterations 18
GAMG:  Solving for p, Initial residual = 0.00360346, Final residual = 2.78614e-05, No Iterations 10
time step continuity errors : sum local = 3.68407e-07, global = 8.86366e-08, cumulative = -6.38739e-07
GAMG:  Solving for p, Initial residual = 0.00211874, Final residual = 2.05416e-05, No Iterations 20
GAMG:  Solving for p, Initial residual = 0.00121392, Final residual = 1.12743e-05, No Iterations 4
GAMG:  Solving for p, Initial residual = 0.000469601, Final residual = 8.64632e-07, No Iterations 34
time step continuity errors : sum local = 1.14009e-08, global = -3.33808e-09, cumulative = -6.42077e-07
DILUPBiCG:  Solving for omega, Initial residual = 0.00116413, Final residual = 1.17407e-06, No Iterations 1
DILUPBiCG:  Solving for k, Initial residual = 0.00465806, Final residual = 1.2437e-06, No Iterations 2
ExecutionTime = 42.02 s  ClockTime = 42 s

Courant Number mean: 0.18172 max: 0.393956
Time = 0.425

GAMG:  Solving for cellDisplacementx, Initial residual = 0, Final residual = 0, No Iterations 0
GAMG:  Solving for cellDisplacementy, Initial residual = 0, Final residual = 0, No Iterations 0
GAMG:  Solving for cellDisplacementz, Initial residual = 0, Final residual = 0, No Iterations 0
PIMPLE: iteration 1
DILUPBiCG:  Solving for Ux, Initial residual = 0.0596957, Final residual = 0.000205647, No Iterations 1
DILUPBiCG:  Solving for Uy, Initial residual = 0.0103001, Final residual = 2.10179e-05, No Iterations 1
DILUPBiCG:  Solving for Uz, Initial residual = 0.0418655, Final residual = 9.07951e-05, No Iterations 1
GAMG:  Solving for p, Initial residual = 0.134553, Final residual = 0.00105379, No Iterations 6
GAMG:  Solving for p, Initial residual = 0.0161783, Final residual = 0.000151286, No Iterations 20
GAMG:  Solving for p, Initial residual = 0.00728582, Final residual = 5.80384e-05, No Iterations 10
time step continuity errors : sum local = 8.2191e-07, global = -2.0626e-07, cumulative = -8.48338e-07
GAMG:  Solving for p, Initial residual = 0.0564519, Final residual = 0.000563112, No Iterations 4
GAMG:  Solving for p, Initial residual = 0.00811262, Final residual = 7.64424e-05, No Iterations 20
GAMG:  Solving for p, Initial residual = 0.00386173, Final residual = 3.61086e-05, No Iterations 8
time step continuity errors : sum local = 5.13009e-07, global = -1.07424e-07, cumulative = -9.55762e-07
PIMPLE: iteration 2
DILUPBiCG:  Solving for Ux, Initial residual = 0.0168794, Final residual = 8.34048e-05, No Iterations 1
DILUPBiCG:  Solving for Uy, Initial residual = 0.00284764, Final residual = 7.20741e-06, No Iterations 1
DILUPBiCG:  Solving for Uz, Initial residual = 0.00528466, Final residual = 1.4251e-05, No Iterations 1
GAMG:  Solving for p, Initial residual = 0.0586741, Final residual = 0.000522161, No Iterations 4
GAMG:  Solving for p, Initial residual = 0.0103723, Final residual = 8.96411e-05, No Iterations 16
GAMG:  Solving for p, Initial residual = 0.00505638, Final residual = 4.84703e-05, No Iterations 5
time step continuity errors : sum local = 5.82529e-07, global = -2.31098e-07, cumulative = -1.18686e-06
GAMG:  Solving for p, Initial residual = 0.0301336, Final residual = 0.000223622, No Iterations 4
GAMG:  Solving for p, Initial residual = 0.00524934, Final residual = 5.24214e-05, No Iterations 12
GAMG:  Solving for p, Initial residual = 0.00241195, Final residual = 2.21292e-05, No Iterations 8
time step continuity errors : sum local = 2.67805e-07, global = 8.73503e-08, cumulative = -1.09951e-06
PIMPLE: iteration 3
DILUPBiCG:  Solving for Ux, Initial residual = 0.00417354, Final residual = 1.4145e-06, No Iterations 2
DILUPBiCG:  Solving for Uy, Initial residual = 0.000692164, Final residual = 7.91295e-06, No Iterations 1
DILUPBiCG:  Solving for Uz, Initial residual = 0.013044, Final residual = 3.97621e-06, No Iterations 2
GAMG:  Solving for p, Initial residual = 0.0362983, Final residual = 0.000322448, No Iterations 5
GAMG:  Solving for p, Initial residual = 0.00771896, Final residual = 7.23472e-05, No Iterations 17
GAMG:  Solving for p, Initial residual = 0.00357694, Final residual = 2.92194e-05, No Iterations 10
time step continuity errors : sum local = 3.98826e-07, global = 1.02828e-07, cumulative = -9.96682e-07
GAMG:  Solving for p, Initial residual = 0.00202472, Final residual = 1.98633e-05, No Iterations 20
GAMG:  Solving for p, Initial residual = 0.00120006, Final residual = 1.10777e-05, No Iterations 4
GAMG:  Solving for p, Initial residual = 0.000460039, Final residual = 9.89955e-07, No Iterations 28
time step continuity errors : sum local = 1.34871e-08, global = -4.03341e-09, cumulative = -1.00071e-06
DILUPBiCG:  Solving for omega, Initial residual = 0.00110451, Final residual = 1.13486e-06, No Iterations 1
DILUPBiCG:  Solving for k, Initial residual = 0.00476395, Final residual = 1.23361e-06, No Iterations 2
ExecutionTime = 52.57 s  ClockTime = 53 s

Courant Number mean: 0.187519 max: 0.407157
Time = 0.426

GAMG:  Solving for cellDisplacementx, Initial residual = 0, Final residual = 0, No Iterations 0
GAMG:  Solving for cellDisplacementy, Initial residual = 0, Final residual = 0, No Iterations 0
GAMG:  Solving for cellDisplacementz, Initial residual = 0, Final residual = 0, No Iterations 0
PIMPLE: iteration 1
DILUPBiCG:  Solving for Ux, Initial residual = 0.0592992, Final residual = 0.000203203, No Iterations 1
DILUPBiCG:  Solving for Uy, Initial residual = 0.0098641, Final residual = 1.98771e-05, No Iterations 1
DILUPBiCG:  Solving for Uz, Initial residual = 0.0299626, Final residual = 4.59208e-05, No Iterations 1
GAMG:  Solving for p, Initial residual = 0.127689, Final residual = 0.000905211, No Iterations 6
GAMG:  Solving for p, Initial residual = 0.0149315, Final residual = 0.000148061, No Iterations 16
GAMG:  Solving for p, Initial residual = 0.00652434, Final residual = 5.97557e-05, No Iterations 10
time step continuity errors : sum local = 8.58064e-07, global = -2.23534e-07, cumulative = -1.22425e-06
GAMG:  Solving for p, Initial residual = 0.0543255, Final residual = 0.000520323, No Iterations 4
GAMG:  Solving for p, Initial residual = 0.00742815, Final residual = 7.29827e-05, No Iterations 16
GAMG:  Solving for p, Initial residual = 0.00339601, Final residual = 3.19482e-05, No Iterations 10
time step continuity errors : sum local = 4.58562e-07, global = -1.2065e-07, cumulative = -1.3449e-06
PIMPLE: iteration 2
DILUPBiCG:  Solving for Ux, Initial residual = 0.01654, Final residual = 7.89627e-05, No Iterations 1
DILUPBiCG:  Solving for Uy, Initial residual = 0.00278067, Final residual = 7.33039e-06, No Iterations 1
DILUPBiCG:  Solving for Uz, Initial residual = 0.00521834, Final residual = 2.06386e-05, No Iterations 1
GAMG:  Solving for p, Initial residual = 0.0559732, Final residual = 0.000508972, No Iterations 4
GAMG:  Solving for p, Initial residual = 0.00900197, Final residual = 8.68217e-05, No Iterations 16
GAMG:  Solving for p, Initial residual = 0.00414975, Final residual = 3.55309e-05, No Iterations 10
time step continuity errors : sum local = 4.30883e-07, global = 1.07948e-07, cumulative = -1.23695e-06
GAMG:  Solving for p, Initial residual = 0.0287755, Final residual = 0.000224095, No Iterations 4
GAMG:  Solving for p, Initial residual = 0.00450114, Final residual = 4.22676e-05, No Iterations 14
GAMG:  Solving for p, Initial residual = 0.00198834, Final residual = 1.77811e-05, No Iterations 10
time step continuity errors : sum local = 2.16726e-07, global = 5.40606e-08, cumulative = -1.18289e-06
PIMPLE: iteration 3
DILUPBiCG:  Solving for Ux, Initial residual = 0.0039315, Final residual = 1.32939e-06, No Iterations 2
DILUPBiCG:  Solving for Uy, Initial residual = 0.000681112, Final residual = 8.48863e-06, No Iterations 1
DILUPBiCG:  Solving for Uz, Initial residual = 0.00747449, Final residual = 2.49953e-06, No Iterations 2
GAMG:  Solving for p, Initial residual = 0.0370774, Final residual = 0.000329136, No Iterations 5
GAMG:  Solving for p, Initial residual = 0.00815281, Final residual = 7.47371e-05, No Iterations 17
GAMG:  Solving for p, Initial residual = 0.00390578, Final residual = 3.64414e-05, No Iterations 8
time step continuity errors : sum local = 5.0086e-07, global = 1.03868e-07, cumulative = -1.07902e-06
GAMG:  Solving for p, Initial residual = 0.002188, Final residual = 1.99663e-05, No Iterations 20
GAMG:  Solving for p, Initial residual = 0.00125817, Final residual = 1.07285e-05, No Iterations 4
GAMG:  Solving for p, Initial residual = 0.000482626, Final residual = 9.39331e-07, No Iterations 32
time step continuity errors : sum local = 1.28671e-08, global = -3.78371e-09, cumulative = -1.08281e-06
DILUPBiCG:  Solving for omega, Initial residual = 0.00105486, Final residual = 1.10026e-06, No Iterations 1
DILUPBiCG:  Solving for k, Initial residual = 0.00486949, Final residual = 1.21716e-06, No Iterations 2
ExecutionTime = 63.17 s  ClockTime = 63 s

Courant Number mean: 0.193295 max: 0.420342
Time = 0.427

GAMG:  Solving for cellDisplacementx, Initial residual = 0, Final residual = 0, No Iterations 0
GAMG:  Solving for cellDisplacementy, Initial residual = 0, Final residual = 0, No Iterations 0
GAMG:  Solving for cellDisplacementz, Initial residual = 0, Final residual = 0, No Iterations 0
PIMPLE: iteration 1
DILUPBiCG:  Solving for Ux, Initial residual = 0.0573574, Final residual = 0.000194104, No Iterations 1
DILUPBiCG:  Solving for Uy, Initial residual = 0.0096386, Final residual = 2.01378e-05, No Iterations 1
DILUPBiCG:  Solving for Uz, Initial residual = 0.0277736, Final residual = 5.27714e-05, No Iterations 1
GAMG:  Solving for p, Initial residual = 0.124302, Final residual = 0.000936427, No Iterations 6
GAMG:  Solving for p, Initial residual = 0.0142313, Final residual = 0.00012849, No Iterations 20
GAMG:  Solving for p, Initial residual = 0.00638451, Final residual = 6.19653e-05, No Iterations 8
time step continuity errors : sum local = 9.00776e-07, global = -1.94556e-07, cumulative = -1.27736e-06
GAMG:  Solving for p, Initial residual = 0.0527823, Final residual = 0.000335678, No Iterations 6
GAMG:  Solving for p, Initial residual = 0.0070899, Final residual = 6.55674e-05, No Iterations 18
GAMG:  Solving for p, Initial residual = 0.00330963, Final residual = 2.67837e-05, No Iterations 10
time step continuity errors : sum local = 3.89778e-07, global = -9.93126e-08, cumulative = -1.37667e-06
PIMPLE: iteration 2
DILUPBiCG:  Solving for Ux, Initial residual = 0.016191, Final residual = 7.56035e-05, No Iterations 1
DILUPBiCG:  Solving for Uy, Initial residual = 0.00269534, Final residual = 7.19651e-06, No Iterations 1
DILUPBiCG:  Solving for Uz, Initial residual = 0.00466367, Final residual = 1.37693e-05, No Iterations 1
GAMG:  Solving for p, Initial residual = 0.0539903, Final residual = 0.000525656, No Iterations 4
GAMG:  Solving for p, Initial residual = 0.00905294, Final residual = 8.74638e-05, No Iterations 16
GAMG:  Solving for p, Initial residual = 0.00424455, Final residual = 4.02962e-05, No Iterations 8
time step continuity errors : sum local = 4.96094e-07, global = 1.69393e-07, cumulative = -1.20728e-06
GAMG:  Solving for p, Initial residual = 0.0277757, Final residual = 0.000228336, No Iterations 4
GAMG:  Solving for p, Initial residual = 0.00452335, Final residual = 4.19494e-05, No Iterations 14
GAMG:  Solving for p, Initial residual = 0.00199915, Final residual = 1.86968e-05, No Iterations 8
time step continuity errors : sum local = 2.31614e-07, global = 6.75909e-08, cumulative = -1.13969e-06
PIMPLE: iteration 3
DILUPBiCG:  Solving for Ux, Initial residual = 0.00393316, Final residual = 1.31472e-06, No Iterations 2
DILUPBiCG:  Solving for Uy, Initial residual = 0.000648501, Final residual = 8.18435e-06, No Iterations 1
DILUPBiCG:  Solving for Uz, Initial residual = 0.0113132, Final residual = 3.36795e-06, No Iterations 2
GAMG:  Solving for p, Initial residual = 0.0377144, Final residual = 0.000303713, No Iterations 5
GAMG:  Solving for p, Initial residual = 0.00834573, Final residual = 7.81603e-05, No Iterations 15
GAMG:  Solving for p, Initial residual = 0.00389863, Final residual = 3.26335e-05, No Iterations 10
time step continuity errors : sum local = 4.54825e-07, global = 1.17488e-07, cumulative = -1.0222e-06
GAMG:  Solving for p, Initial residual = 0.00217256, Final residual = 1.99722e-05, No Iterations 20
GAMG:  Solving for p, Initial residual = 0.00127949, Final residual = 1.09232e-05, No Iterations 4
GAMG:  Solving for p, Initial residual = 0.000487452, Final residual = 8.57553e-07, No Iterations 32
time step continuity errors : sum local = 1.19177e-08, global = -3.51737e-09, cumulative = -1.02572e-06
DILUPBiCG:  Solving for omega, Initial residual = 0.00101608, Final residual = 1.07353e-06, No Iterations 1
DILUPBiCG:  Solving for k, Initial residual = 0.00498069, Final residual = 1.20644e-06, No Iterations 2
ExecutionTime = 72.16 s  ClockTime = 72 s

Courant Number mean: 0.199075 max: 0.433449
Time = 0.428

GAMG:  Solving for cellDisplacementx, Initial residual = 0, Final residual = 0, No Iterations 0
GAMG:  Solving for cellDisplacementy, Initial residual = 0, Final residual = 0, No Iterations 0
GAMG:  Solving for cellDisplacementz, Initial residual = 0, Final residual = 0, No Iterations 0
PIMPLE: iteration 1
DILUPBiCG:  Solving for Ux, Initial residual = 0.0562259, Final residual = 0.000189005, No Iterations 1
DILUPBiCG:  Solving for Uy, Initial residual = 0.00921692, Final residual = 1.91978e-05, No Iterations 1
DILUPBiCG:  Solving for Uz, Initial residual = 0.0231994, Final residual = 3.07491e-05, No Iterations 1
GAMG:  Solving for p, Initial residual = 0.12106, Final residual = 0.000847727, No Iterations 6
GAMG:  Solving for p, Initial residual = 0.0138221, Final residual = 0.000121076, No Iterations 18
GAMG:  Solving for p, Initial residual = 0.00605032, Final residual = 6.03143e-05, No Iterations 4
time step continuity errors : sum local = 8.78143e-07, global = -3.32147e-07, cumulative = -1.35787e-06
GAMG:  Solving for p, Initial residual = 0.05188, Final residual = 0.000509952, No Iterations 4
GAMG:  Solving for p, Initial residual = 0.00690495, Final residual = 6.1367e-05, No Iterations 18
GAMG:  Solving for p, Initial residual = 0.00317006, Final residual = 2.70047e-05, No Iterations 10
time step continuity errors : sum local = 3.9282e-07, global = -1.04072e-07, cumulative = -1.46194e-06
PIMPLE: iteration 2
DILUPBiCG:  Solving for Ux, Initial residual = 0.0157732, Final residual = 7.16925e-05, No Iterations 1
DILUPBiCG:  Solving for Uy, Initial residual = 0.00261905, Final residual = 7.23086e-06, No Iterations 1
DILUPBiCG:  Solving for Uz, Initial residual = 0.00457345, Final residual = 1.8428e-05, No Iterations 1
GAMG:  Solving for p, Initial residual = 0.0527956, Final residual = 0.000518948, No Iterations 4
GAMG:  Solving for p, Initial residual = 0.00863141, Final residual = 7.43949e-05, No Iterations 18
GAMG:  Solving for p, Initial residual = 0.00393024, Final residual = 3.89159e-05, No Iterations 6
time step continuity errors : sum local = 4.77687e-07, global = 1.44708e-07, cumulative = -1.31723e-06
GAMG:  Solving for p, Initial residual = 0.0271966, Final residual = 0.000229236, No Iterations 4
GAMG:  Solving for p, Initial residual = 0.00429836, Final residual = 4.19276e-05, No Iterations 14
GAMG:  Solving for p, Initial residual = 0.00182657, Final residual = 1.53064e-05, No Iterations 12
time step continuity errors : sum local = 1.89051e-07, global = 5.36625e-08, cumulative = -1.26357e-06
PIMPLE: iteration 3
DILUPBiCG:  Solving for Ux, Initial residual = 0.00373498, Final residual = 1.26669e-06, No Iterations 2
DILUPBiCG:  Solving for Uy, Initial residual = 0.000631123, Final residual = 8.70383e-06, No Iterations 1
DILUPBiCG:  Solving for Uz, Initial residual = 0.00782801, Final residual = 2.75203e-06, No Iterations 2
GAMG:  Solving for p, Initial residual = 0.0384688, Final residual = 0.000345024, No Iterations 5
GAMG:  Solving for p, Initial residual = 0.0088245, Final residual = 7.777e-05, No Iterations 13
GAMG:  Solving for p, Initial residual = 0.00411668, Final residual = 3.74497e-05, No Iterations 8
time step continuity errors : sum local = 5.19839e-07, global = 1.11131e-07, cumulative = -1.15244e-06
GAMG:  Solving for p, Initial residual = 0.00231119, Final residual = 2.07242e-05, No Iterations 20
GAMG:  Solving for p, Initial residual = 0.00134736, Final residual = 1.11027e-05, No Iterations 4
GAMG:  Solving for p, Initial residual = 0.000506852, Final residual = 8.61816e-07, No Iterations 34
time step continuity errors : sum local = 1.1921e-08, global = -3.49173e-09, cumulative = -1.15593e-06
DILUPBiCG:  Solving for omega, Initial residual = 0.000986019, Final residual = 1.05354e-06, No Iterations 1
DILUPBiCG:  Solving for k, Initial residual = 0.00510016, Final residual = 1.19642e-06, No Iterations 2
ExecutionTime = 83.06 s  ClockTime = 83 s

Courant Number mean: 0.204788 max: 0.446428
Time = 0.429

GAMG:  Solving for cellDisplacementx, Initial residual = 0, Final residual = 0, No Iterations 0
GAMG:  Solving for cellDisplacementy, Initial residual = 0, Final residual = 0, No Iterations 0
GAMG:  Solving for cellDisplacementz, Initial residual = 0, Final residual = 0, No Iterations 0
PIMPLE: iteration 1
DILUPBiCG:  Solving for Ux, Initial residual = 0.0541958, Final residual = 0.000180704, No Iterations 1
DILUPBiCG:  Solving for Uy, Initial residual = 0.00893527, Final residual = 1.91542e-05, No Iterations 1
DILUPBiCG:  Solving for Uz, Initial residual = 0.0222773, Final residual = 3.89232e-05, No Iterations 1
GAMG:  Solving for p, Initial residual = 0.119378, Final residual = 0.000870998, No Iterations 6
GAMG:  Solving for p, Initial residual = 0.0136948, Final residual = 0.000119262, No Iterations 20
GAMG:  Solving for p, Initial residual = 0.00613077, Final residual = 5.94029e-05, No Iterations 8
time step continuity errors : sum local = 8.6457e-07, global = -1.87772e-07, cumulative = -1.3437e-06
GAMG:  Solving for p, Initial residual = 0.0510971, Final residual = 0.000505718, No Iterations 4
GAMG:  Solving for p, Initial residual = 0.00683672, Final residual = 6.15833e-05, No Iterations 20
GAMG:  Solving for p, Initial residual = 0.00324807, Final residual = 3.13088e-05, No Iterations 8
time step continuity errors : sum local = 4.55998e-07, global = -9.95243e-08, cumulative = -1.44323e-06
PIMPLE: iteration 2
DILUPBiCG:  Solving for Ux, Initial residual = 0.0153068, Final residual = 6.81817e-05, No Iterations 1
DILUPBiCG:  Solving for Uy, Initial residual = 0.00252039, Final residual = 7.10595e-06, No Iterations 1
DILUPBiCG:  Solving for Uz, Initial residual = 0.00427338, Final residual = 1.44554e-05, No Iterations 1
GAMG:  Solving for p, Initial residual = 0.0518175, Final residual = 0.000513402, No Iterations 5
GAMG:  Solving for p, Initial residual = 0.00889622, Final residual = 7.97063e-05, No Iterations 15
GAMG:  Solving for p, Initial residual = 0.00394013, Final residual = 3.78313e-05, No Iterations 8
time step continuity errors : sum local = 4.65412e-07, global = 1.65716e-07, cumulative = -1.27751e-06
GAMG:  Solving for p, Initial residual = 0.0267163, Final residual = 0.000230256, No Iterations 4
GAMG:  Solving for p, Initial residual = 0.00435674, Final residual = 4.17168e-05, No Iterations 14
GAMG:  Solving for p, Initial residual = 0.00186551, Final residual = 1.6882e-05, No Iterations 10
time step continuity errors : sum local = 2.09199e-07, global = 5.58687e-08, cumulative = -1.22164e-06
PIMPLE: iteration 3
DILUPBiCG:  Solving for Ux, Initial residual = 0.00367766, Final residual = 1.24563e-06, No Iterations 2
DILUPBiCG:  Solving for Uy, Initial residual = 0.000602158, Final residual = 8.46759e-06, No Iterations 1
DILUPBiCG:  Solving for Uz, Initial residual = 0.010298, Final residual = 2.99373e-06, No Iterations 2
GAMG:  Solving for p, Initial residual = 0.0388975, Final residual = 0.00033495, No Iterations 5
GAMG:  Solving for p, Initial residual = 0.00895816, Final residual = 8.36934e-05, No Iterations 11
GAMG:  Solving for p, Initial residual = 0.00409824, Final residual = 3.55846e-05, No Iterations 10
time step continuity errors : sum local = 4.94773e-07, global = 1.27498e-07, cumulative = -1.09414e-06
GAMG:  Solving for p, Initial residual = 0.00230182, Final residual = 2.0315e-05, No Iterations 20
GAMG:  Solving for p, Initial residual = 0.0013637, Final residual = 1.07813e-05, No Iterations 4
GAMG:  Solving for p, Initial residual = 0.000512065, Final residual = 8.78673e-07, No Iterations 32
time step continuity errors : sum local = 1.21822e-08, global = -3.59151e-09, cumulative = -1.09773e-06
DILUPBiCG:  Solving for omega, Initial residual = 0.000965002, Final residual = 1.04074e-06, No Iterations 1
DILUPBiCG:  Solving for k, Initial residual = 0.00523016, Final residual = 1.19478e-06, No Iterations 2
ExecutionTime = 94.47 s  ClockTime = 95 s

Courant Number mean: 0.210456 max: 0.459232
Time = 0.43

GAMG:  Solving for cellDisplacementx, Initial residual = 0, Final residual = 0, No Iterations 0
GAMG:  Solving for cellDisplacementy, Initial residual = 0, Final residual = 0, No Iterations 0
GAMG:  Solving for cellDisplacementz, Initial residual = 0, Final residual = 0, No Iterations 0
PIMPLE: iteration 1
DILUPBiCG:  Solving for Ux, Initial residual = 0.0526423, Final residual = 0.000174379, No Iterations 1
DILUPBiCG:  Solving for Uy, Initial residual = 0.00852175, Final residual = 1.83598e-05, No Iterations 1
DILUPBiCG:  Solving for Uz, Initial residual = 0.0198111, Final residual = 2.54495e-05, No Iterations 1
GAMG:  Solving for p, Initial residual = 0.11717, Final residual = 0.000802138, No Iterations 6
GAMG:  Solving for p, Initial residual = 0.0134631, Final residual = 0.00011635, No Iterations 18
GAMG:  Solving for p, Initial residual = 0.00588796, Final residual = 4.8815e-05, No Iterations 10
time step continuity errors : sum local = 7.04421e-07, global = -1.8589e-07, cumulative = -1.28362e-06
GAMG:  Solving for p, Initial residual = 0.0504233, Final residual = 0.000472587, No Iterations 4
GAMG:  Solving for p, Initial residual = 0.0066807, Final residual = 5.87168e-05, No Iterations 18
GAMG:  Solving for p, Initial residual = 0.00307579, Final residual = 2.60579e-05, No Iterations 10
time step continuity errors : sum local = 3.75582e-07, global = -9.99611e-08, cumulative = -1.38359e-06
PIMPLE: iteration 2
DILUPBiCG:  Solving for Ux, Initial residual = 0.0147945, Final residual = 6.43974e-05, No Iterations 1
DILUPBiCG:  Solving for Uy, Initial residual = 0.00243038, Final residual = 7.09063e-06, No Iterations 1
DILUPBiCG:  Solving for Uz, Initial residual = 0.00406792, Final residual = 3.12767e-05, No Iterations 1
GAMG:  Solving for p, Initial residual = 0.0510132, Final residual = 0.000507804, No Iterations 5
GAMG:  Solving for p, Initial residual = 0.00874701, Final residual = 8.23395e-05, No Iterations 15
GAMG:  Solving for p, Initial residual = 0.00370543, Final residual = 3.5123e-05, No Iterations 10
time step continuity errors : sum local = 4.27313e-07, global = 1.11414e-07, cumulative = -1.27217e-06
GAMG:  Solving for p, Initial residual = 0.0263366, Final residual = 0.000230568, No Iterations 4
GAMG:  Solving for p, Initial residual = 0.00426107, Final residual = 4.22428e-05, No Iterations 14
GAMG:  Solving for p, Initial residual = 0.00176539, Final residual = 1.57075e-05, No Iterations 12
time step continuity errors : sum local = 1.92321e-07, global = 5.44701e-08, cumulative = -1.2177e-06
PIMPLE: iteration 3
DILUPBiCG:  Solving for Ux, Initial residual = 0.00348883, Final residual = 1.21435e-06, No Iterations 2
DILUPBiCG:  Solving for Uy, Initial residual = 0.00058107, Final residual = 8.98917e-06, No Iterations 1
DILUPBiCG:  Solving for Uz, Initial residual = 0.00772902, Final residual = 2.91653e-06, No Iterations 2
GAMG:  Solving for p, Initial residual = 0.0395421, Final residual = 0.00032285, No Iterations 5
GAMG:  Solving for p, Initial residual = 0.00966108, Final residual = 8.60596e-05, No Iterations 7
GAMG:  Solving for p, Initial residual = 0.00420708, Final residual = 4.07548e-05, No Iterations 8
time step continuity errors : sum local = 5.58609e-07, global = 1.21014e-07, cumulative = -1.09669e-06
GAMG:  Solving for p, Initial residual = 0.00243056, Final residual = 2.14254e-05, No Iterations 20
GAMG:  Solving for p, Initial residual = 0.0014341, Final residual = 1.14969e-05, No Iterations 4
GAMG:  Solving for p, Initial residual = 0.000532717, Final residual = 8.99124e-07, No Iterations 34
time step continuity errors : sum local = 1.22984e-08, global = -3.60243e-09, cumulative = -1.10029e-06
DILUPBiCG:  Solving for omega, Initial residual = 0.000953169, Final residual = 1.03597e-06, No Iterations 1
DILUPBiCG:  Solving for k, Initial residual = 0.00535776, Final residual = 1.19719e-06, No Iterations 2
ExecutionTime = 102.49 s  ClockTime = 103 s

End

