/*---------------------------------------------------------------------------*\
| =========                 |                                                 |
| \\      /  F ield         | OpenFOAM: The Open Source CFD Toolbox           |
|  \\    /   O peration     | Version:  2.3.1                                 |
|   \\  /    A nd           | Web:      www.OpenFOAM.org                      |
|    \\/     M anipulation  |                                                 |
\*---------------------------------------------------------------------------*/
Build  : 2.3.1-262087cdf8db
Exec   : pimpleDyMFoam
Date   : Jun 04 2023
Time   : 16:49:48
Host   : "jcosson-VirtualBox"
PID    : 2912
Case   : /home/jcosson/workspace/henersj_shootingdata/calcs/moderate_deformed/primal/10_intervals_04-06-23/sweep1/interval5
nProcs : 1
sigFpe : Enabling floating point exception trapping (FOAM_SIGFPE).
fileModificationChecking : Monitoring run-time modified files using timeStampMaster
allowSystemOperations : Allowing user-supplied system call operations

// * * * * * * * * * * * * * * * * * * * * * * * * * * * * * * * * * * * * * //
Create time

Create mesh for time = 0.44

Selecting dynamicFvMesh dynamicMotionSolverFvMesh
Selecting motion solver: displacementLaplacian
Selecting motion diffusion: quadratic
Selecting motion diffusion: quadratic
Selecting motion diffusion: inverseDistance

PIMPLE: no residual control data found. Calculations will employ 3 corrector loops

Reading field p

Reading field U

Reading/calculating face flux field phi

Selecting incompressible transport model Newtonian
Selecting turbulence model type RASModel
Selecting RAS turbulence model kOmegaSST
kOmegaSSTCoeffs
{
    alphaK1         0.85034;
    alphaK2         1;
    alphaOmega1     0.5;
    alphaOmega2     0.85616;
    gamma1          0.5532;
    gamma2          0.4403;
    beta1           0.075;
    beta2           0.0828;
    betaStar        0.09;
    a1              0.31;
    c1              10;
    Cmu             0.09;
    b1              1;
    F3              false;
}

Reading/calculating face velocity Uf

No finite volume options present

Courant Number mean: 0.263314 max: 0.599235

Starting time loop

Courant Number mean: 0.263314 max: 0.599235
Time = 0.441

GAMG:  Solving for cellDisplacementx, Initial residual = 0, Final residual = 0, No Iterations 0
GAMG:  Solving for cellDisplacementy, Initial residual = 0, Final residual = 0, No Iterations 0
GAMG:  Solving for cellDisplacementz, Initial residual = 0, Final residual = 0, No Iterations 0
PIMPLE: iteration 1
DILUPBiCG:  Solving for Ux, Initial residual = 0.0277731, Final residual = 0.000101254, No Iterations 1
DILUPBiCG:  Solving for Uy, Initial residual = 0.00433385, Final residual = 1.37201e-05, No Iterations 1
DILUPBiCG:  Solving for Uz, Initial residual = 0.185732, Final residual = 0.000566947, No Iterations 1
GAMG:  Solving for p, Initial residual = 0.34797, Final residual = 0.00302269, No Iterations 15
GAMG:  Solving for p, Initial residual = 0.130233, Final residual = 0.00125783, No Iterations 5
GAMG:  Solving for p, Initial residual = 0.0442284, Final residual = 0.000402661, No Iterations 10
time step continuity errors : sum local = 2.5263e-06, global = -6.99093e-07, cumulative = -6.99093e-07
GAMG:  Solving for p, Initial residual = 0.170618, Final residual = 0.00165513, No Iterations 13
GAMG:  Solving for p, Initial residual = 0.0609604, Final residual = 0.00056544, No Iterations 6
GAMG:  Solving for p, Initial residual = 0.0211351, Final residual = 0.000183433, No Iterations 10
time step continuity errors : sum local = 1.17658e-06, global = 3.68986e-07, cumulative = -3.30108e-07
PIMPLE: iteration 2
DILUPBiCG:  Solving for Ux, Initial residual = 0.00608104, Final residual = 2.47282e-05, No Iterations 1
DILUPBiCG:  Solving for Uy, Initial residual = 0.00545105, Final residual = 2.38369e-05, No Iterations 1
DILUPBiCG:  Solving for Uz, Initial residual = 0.0369119, Final residual = 0.00011022, No Iterations 1
GAMG:  Solving for p, Initial residual = 0.159685, Final residual = 0.00147291, No Iterations 11
GAMG:  Solving for p, Initial residual = 0.0671656, Final residual = 0.00051931, No Iterations 8
GAMG:  Solving for p, Initial residual = 0.025362, Final residual = 0.000248652, No Iterations 6
time step continuity errors : sum local = 1.29917e-06, global = 2.31311e-07, cumulative = -9.87967e-08
GAMG:  Solving for p, Initial residual = 0.086037, Final residual = 0.000710626, No Iterations 11
GAMG:  Solving for p, Initial residual = 0.0323037, Final residual = 0.000285296, No Iterations 4
GAMG:  Solving for p, Initial residual = 0.0111067, Final residual = 0.000102161, No Iterations 8
time step continuity errors : sum local = 5.40309e-07, global = 1.16942e-07, cumulative = 1.81449e-08
PIMPLE: iteration 3
DILUPBiCG:  Solving for Ux, Initial residual = 0.0023193, Final residual = 6.77068e-07, No Iterations 2
DILUPBiCG:  Solving for Uy, Initial residual = 0.00342326, Final residual = 2.32282e-06, No Iterations 2
DILUPBiCG:  Solving for Uz, Initial residual = 0.0278163, Final residual = 5.02185e-06, No Iterations 2
GAMG:  Solving for p, Initial residual = 0.0600826, Final residual = 0.00048336, No Iterations 9
GAMG:  Solving for p, Initial residual = 0.0190136, Final residual = 0.000175845, No Iterations 10
GAMG:  Solving for p, Initial residual = 0.00602723, Final residual = 5.80053e-05, No Iterations 14
time step continuity errors : sum local = 3.48348e-07, global = 1.09953e-07, cumulative = 1.28098e-07
GAMG:  Solving for p, Initial residual = 0.00638935, Final residual = 5.83023e-05, No Iterations 9
GAMG:  Solving for p, Initial residual = 0.00473057, Final residual = 4.34165e-05, No Iterations 4
GAMG:  Solving for p, Initial residual = 0.00145195, Final residual = 9.90162e-07, No Iterations 34
time step continuity errors : sum local = 6.06806e-09, global = -1.81967e-09, cumulative = 1.26278e-07
DILUPBiCG:  Solving for omega, Initial residual = 0.00232875, Final residual = 3.00398e-06, No Iterations 1
DILUPBiCG:  Solving for k, Initial residual = 0.00704463, Final residual = 1.60956e-06, No Iterations 2
ExecutionTime = 13.48 s  ClockTime = 14 s

Courant Number mean: 0.265103 max: 0.592844
Time = 0.442

GAMG:  Solving for cellDisplacementx, Initial residual = 0, Final residual = 0, No Iterations 0
GAMG:  Solving for cellDisplacementy, Initial residual = 0, Final residual = 0, No Iterations 0
GAMG:  Solving for cellDisplacementz, Initial residual = 0, Final residual = 0, No Iterations 0
PIMPLE: iteration 1
DILUPBiCG:  Solving for Ux, Initial residual = 0.0128308, Final residual = 5.42272e-05, No Iterations 1
DILUPBiCG:  Solving for Uy, Initial residual = 0.0238635, Final residual = 8.14294e-05, No Iterations 1
DILUPBiCG:  Solving for Uz, Initial residual = 0.154486, Final residual = 0.000392455, No Iterations 1
GAMG:  Solving for p, Initial residual = 0.424902, Final residual = 0.00372448, No Iterations 12
GAMG:  Solving for p, Initial residual = 0.0969852, Final residual = 0.000947074, No Iterations 4
GAMG:  Solving for p, Initial residual = 0.0393234, Final residual = 0.000291653, No Iterations 6
time step continuity errors : sum local = 2.13018e-06, global = -4.59521e-07, cumulative = -3.33242e-07
GAMG:  Solving for p, Initial residual = 0.167318, Final residual = 0.00166529, No Iterations 11
GAMG:  Solving for p, Initial residual = 0.0548528, Final residual = 0.000512953, No Iterations 4
GAMG:  Solving for p, Initial residual = 0.0236564, Final residual = 0.000234347, No Iterations 4
time step continuity errors : sum local = 1.66626e-06, global = -1.87662e-07, cumulative = -5.20904e-07
PIMPLE: iteration 2
DILUPBiCG:  Solving for Ux, Initial residual = 0.00488657, Final residual = 2.15501e-05, No Iterations 1
DILUPBiCG:  Solving for Uy, Initial residual = 0.00309906, Final residual = 1.31647e-05, No Iterations 1
DILUPBiCG:  Solving for Uz, Initial residual = 0.0237478, Final residual = 8.30728e-05, No Iterations 1
GAMG:  Solving for p, Initial residual = 0.195619, Final residual = 0.001802, No Iterations 14
GAMG:  Solving for p, Initial residual = 0.0699749, Final residual = 0.000270855, No Iterations 6
GAMG:  Solving for p, Initial residual = 0.0316984, Final residual = 0.000136932, No Iterations 5
time step continuity errors : sum local = 8.47244e-07, global = 6.62031e-08, cumulative = -4.54701e-07
GAMG:  Solving for p, Initial residual = 0.0947057, Final residual = 0.00089617, No Iterations 12
GAMG:  Solving for p, Initial residual = 0.0390117, Final residual = 0.000375809, No Iterations 4
GAMG:  Solving for p, Initial residual = 0.0158335, Final residual = 0.000138362, No Iterations 6
time step continuity errors : sum local = 8.49836e-07, global = -2.39785e-07, cumulative = -6.94486e-07
PIMPLE: iteration 3
DILUPBiCG:  Solving for Ux, Initial residual = 0.00236571, Final residual = 4.45183e-07, No Iterations 2
DILUPBiCG:  Solving for Uy, Initial residual = 0.0012307, Final residual = 1.23024e-06, No Iterations 2
DILUPBiCG:  Solving for Uz, Initial residual = 0.0294272, Final residual = 3.18151e-06, No Iterations 2
GAMG:  Solving for p, Initial residual = 0.0824326, Final residual = 0.00081351, No Iterations 11
GAMG:  Solving for p, Initial residual = 0.03138, Final residual = 0.000265905, No Iterations 10
GAMG:  Solving for p, Initial residual = 0.0136168, Final residual = 0.000132745, No Iterations 8
time step continuity errors : sum local = 8.88405e-07, global = 1.90613e-07, cumulative = -5.03873e-07
GAMG:  Solving for p, Initial residual = 0.0124884, Final residual = 0.000119557, No Iterations 12
GAMG:  Solving for p, Initial residual = 0.00889696, Final residual = 8.73272e-05, No Iterations 4
GAMG:  Solving for p, Initial residual = 0.00345273, Final residual = 9.16062e-07, No Iterations 47
time step continuity errors : sum local = 6.06027e-09, global = -1.80825e-09, cumulative = -5.05681e-07
DILUPBiCG:  Solving for omega, Initial residual = 0.0020755, Final residual = 2.70274e-06, No Iterations 1
DILUPBiCG:  Solving for k, Initial residual = 0.00687677, Final residual = 1.22558e-06, No Iterations 2
ExecutionTime = 23.15 s  ClockTime = 23 s

Courant Number mean: 0.267976 max: 0.599974
Time = 0.443

GAMG:  Solving for cellDisplacementx, Initial residual = 0, Final residual = 0, No Iterations 0
GAMG:  Solving for cellDisplacementy, Initial residual = 0, Final residual = 0, No Iterations 0
GAMG:  Solving for cellDisplacementz, Initial residual = 0, Final residual = 0, No Iterations 0
PIMPLE: iteration 1
DILUPBiCG:  Solving for Ux, Initial residual = 0.0202731, Final residual = 7.29259e-05, No Iterations 1
DILUPBiCG:  Solving for Uy, Initial residual = 0.00396214, Final residual = 1.16922e-05, No Iterations 1
DILUPBiCG:  Solving for Uz, Initial residual = 0.133842, Final residual = 0.000341724, No Iterations 1
GAMG:  Solving for p, Initial residual = 0.210057, Final residual = 0.00188162, No Iterations 4
GAMG:  Solving for p, Initial residual = 0.0428251, Final residual = 0.000410678, No Iterations 14
GAMG:  Solving for p, Initial residual = 0.0183021, Final residual = 0.000155528, No Iterations 8
time step continuity errors : sum local = 1.01848e-06, global = -2.13039e-07, cumulative = -7.1872e-07
GAMG:  Solving for p, Initial residual = 0.0847445, Final residual = 0.000734295, No Iterations 4
GAMG:  Solving for p, Initial residual = 0.0220114, Final residual = 0.000214843, No Iterations 10
GAMG:  Solving for p, Initial residual = 0.00996531, Final residual = 9.39796e-05, No Iterations 8
time step continuity errors : sum local = 6.20024e-07, global = -1.32492e-07, cumulative = -8.51212e-07
PIMPLE: iteration 2
DILUPBiCG:  Solving for Ux, Initial residual = 0.00588913, Final residual = 2.50682e-05, No Iterations 1
DILUPBiCG:  Solving for Uy, Initial residual = 0.00106528, Final residual = 7.11699e-06, No Iterations 1
DILUPBiCG:  Solving for Uz, Initial residual = 0.014676, Final residual = 2.93352e-05, No Iterations 1
GAMG:  Solving for p, Initial residual = 0.0976197, Final residual = 0.000749954, No Iterations 6
GAMG:  Solving for p, Initial residual = 0.0308634, Final residual = 0.0002749, No Iterations 9
GAMG:  Solving for p, Initial residual = 0.0149732, Final residual = 0.000148793, No Iterations 5
time step continuity errors : sum local = 8.26366e-07, global = 3.22236e-07, cumulative = -5.28976e-07
GAMG:  Solving for p, Initial residual = 0.0496834, Final residual = 0.000338201, No Iterations 6
GAMG:  Solving for p, Initial residual = 0.0153664, Final residual = 0.000148279, No Iterations 7
GAMG:  Solving for p, Initial residual = 0.00702579, Final residual = 6.24814e-05, No Iterations 6
time step continuity errors : sum local = 3.50882e-07, global = -1.28433e-07, cumulative = -6.57409e-07
PIMPLE: iteration 3
DILUPBiCG:  Solving for Ux, Initial residual = 0.00142861, Final residual = 9.94056e-06, No Iterations 1
DILUPBiCG:  Solving for Uy, Initial residual = 0.000212778, Final residual = 6.89327e-06, No Iterations 1
DILUPBiCG:  Solving for Uz, Initial residual = 0.0145305, Final residual = 3.04816e-06, No Iterations 2
GAMG:  Solving for p, Initial residual = 0.0523182, Final residual = 0.000350338, No Iterations 5
GAMG:  Solving for p, Initial residual = 0.0131919, Final residual = 0.000116886, No Iterations 11
GAMG:  Solving for p, Initial residual = 0.00586556, Final residual = 5.83388e-05, No Iterations 4
time step continuity errors : sum local = 3.66143e-07, global = 1.45194e-07, cumulative = -5.12215e-07
GAMG:  Solving for p, Initial residual = 0.00502093, Final residual = 3.78597e-05, No Iterations 8
GAMG:  Solving for p, Initial residual = 0.00287354, Final residual = 2.75908e-05, No Iterations 4
GAMG:  Solving for p, Initial residual = 0.00107263, Final residual = 9.50874e-07, No Iterations 33
time step continuity errors : sum local = 6.00945e-09, global = -1.7768e-09, cumulative = -5.13992e-07
DILUPBiCG:  Solving for omega, Initial residual = 0.00191411, Final residual = 2.50811e-06, No Iterations 1
DILUPBiCG:  Solving for k, Initial residual = 0.00674212, Final residual = 1.26772e-06, No Iterations 2
ExecutionTime = 32.97 s  ClockTime = 33 s

Courant Number mean: 0.270625 max: 0.60645
Time = 0.444

GAMG:  Solving for cellDisplacementx, Initial residual = 0, Final residual = 0, No Iterations 0
GAMG:  Solving for cellDisplacementy, Initial residual = 0, Final residual = 0, No Iterations 0
GAMG:  Solving for cellDisplacementz, Initial residual = 0, Final residual = 0, No Iterations 0
PIMPLE: iteration 1
DILUPBiCG:  Solving for Ux, Initial residual = 0.0194927, Final residual = 7.09935e-05, No Iterations 1
DILUPBiCG:  Solving for Uy, Initial residual = 0.0032023, Final residual = 9.94951e-06, No Iterations 1
DILUPBiCG:  Solving for Uz, Initial residual = 0.0344156, Final residual = 8.74694e-05, No Iterations 1
GAMG:  Solving for p, Initial residual = 0.146968, Final residual = 0.000694571, No Iterations 4
GAMG:  Solving for p, Initial residual = 0.0275609, Final residual = 0.000269196, No Iterations 4
GAMG:  Solving for p, Initial residual = 0.012022, Final residual = 0.000118153, No Iterations 8
time step continuity errors : sum local = 7.06505e-07, global = -1.64665e-07, cumulative = -6.78657e-07
GAMG:  Solving for p, Initial residual = 0.0650014, Final residual = 0.000287646, No Iterations 4
GAMG:  Solving for p, Initial residual = 0.0132423, Final residual = 0.000110918, No Iterations 4
GAMG:  Solving for p, Initial residual = 0.00582583, Final residual = 4.56874e-05, No Iterations 5
time step continuity errors : sum local = 2.77556e-07, global = -7.12617e-08, cumulative = -7.49918e-07
PIMPLE: iteration 2
DILUPBiCG:  Solving for Ux, Initial residual = 0.00532144, Final residual = 2.26989e-05, No Iterations 1
DILUPBiCG:  Solving for Uy, Initial residual = 0.000887881, Final residual = 6.43771e-06, No Iterations 1
DILUPBiCG:  Solving for Uz, Initial residual = 0.00491231, Final residual = 1.18317e-05, No Iterations 1
GAMG:  Solving for p, Initial residual = 0.07073, Final residual = 0.000647355, No Iterations 5
GAMG:  Solving for p, Initial residual = 0.0199298, Final residual = 0.000168375, No Iterations 6
GAMG:  Solving for p, Initial residual = 0.00806578, Final residual = 5.0204e-05, No Iterations 5
time step continuity errors : sum local = 2.56159e-07, global = 3.25839e-09, cumulative = -7.4666e-07
GAMG:  Solving for p, Initial residual = 0.0372012, Final residual = 0.00033585, No Iterations 4
GAMG:  Solving for p, Initial residual = 0.00920893, Final residual = 8.43057e-05, No Iterations 10
GAMG:  Solving for p, Initial residual = 0.00382637, Final residual = 3.61812e-05, No Iterations 4
time step continuity errors : sum local = 1.86307e-07, global = 7.32151e-08, cumulative = -6.73445e-07
PIMPLE: iteration 3
DILUPBiCG:  Solving for Ux, Initial residual = 0.00109535, Final residual = 7.62975e-06, No Iterations 1
DILUPBiCG:  Solving for Uy, Initial residual = 0.00019594, Final residual = 5.27079e-06, No Iterations 1
DILUPBiCG:  Solving for Uz, Initial residual = 0.00497345, Final residual = 7.83602e-07, No Iterations 2
GAMG:  Solving for p, Initial residual = 0.0454792, Final residual = 0.000436448, No Iterations 5
GAMG:  Solving for p, Initial residual = 0.0119597, Final residual = 0.000100584, No Iterations 10
GAMG:  Solving for p, Initial residual = 0.00490718, Final residual = 4.57462e-05, No Iterations 8
time step continuity errors : sum local = 2.63236e-07, global = 5.67214e-08, cumulative = -6.16723e-07
GAMG:  Solving for p, Initial residual = 0.00387575, Final residual = 3.76024e-05, No Iterations 18
GAMG:  Solving for p, Initial residual = 0.00224523, Final residual = 2.08776e-05, No Iterations 4
GAMG:  Solving for p, Initial residual = 0.000752047, Final residual = 8.63762e-07, No Iterations 44
time step continuity errors : sum local = 4.99232e-09, global = -1.48136e-09, cumulative = -6.18205e-07
DILUPBiCG:  Solving for omega, Initial residual = 0.00179081, Final residual = 2.3799e-06, No Iterations 1
DILUPBiCG:  Solving for k, Initial residual = 0.00659687, Final residual = 1.14027e-06, No Iterations 2
ExecutionTime = 42.89 s  ClockTime = 43 s

Courant Number mean: 0.272928 max: 0.611787
Time = 0.445

GAMG:  Solving for cellDisplacementx, Initial residual = 0, Final residual = 0, No Iterations 0
GAMG:  Solving for cellDisplacementy, Initial residual = 0, Final residual = 0, No Iterations 0
GAMG:  Solving for cellDisplacementz, Initial residual = 0, Final residual = 0, No Iterations 0
PIMPLE: iteration 1
DILUPBiCG:  Solving for Ux, Initial residual = 0.01689, Final residual = 6.23563e-05, No Iterations 1
DILUPBiCG:  Solving for Uy, Initial residual = 0.00270146, Final residual = 8.74785e-06, No Iterations 1
DILUPBiCG:  Solving for Uz, Initial residual = 0.0190696, Final residual = 4.25889e-05, No Iterations 1
GAMG:  Solving for p, Initial residual = 0.12143, Final residual = 0.000568326, No Iterations 4
GAMG:  Solving for p, Initial residual = 0.019621, Final residual = 0.000170477, No Iterations 14
GAMG:  Solving for p, Initial residual = 0.00901341, Final residual = 7.55999e-05, No Iterations 4
time step continuity errors : sum local = 4.13672e-07, global = -1.35053e-07, cumulative = -7.53258e-07
GAMG:  Solving for p, Initial residual = 0.0550881, Final residual = 0.000239485, No Iterations 4
GAMG:  Solving for p, Initial residual = 0.00954303, Final residual = 8.65849e-05, No Iterations 12
GAMG:  Solving for p, Initial residual = 0.00445635, Final residual = 3.78466e-05, No Iterations 4
time step continuity errors : sum local = 2.08215e-07, global = -7.12294e-08, cumulative = -8.24487e-07
PIMPLE: iteration 2
DILUPBiCG:  Solving for Ux, Initial residual = 0.00457985, Final residual = 2.04426e-05, No Iterations 1
DILUPBiCG:  Solving for Uy, Initial residual = 0.000751669, Final residual = 6.33427e-06, No Iterations 1
DILUPBiCG:  Solving for Uz, Initial residual = 0.00425523, Final residual = 1.36595e-05, No Iterations 1
GAMG:  Solving for p, Initial residual = 0.0573219, Final residual = 0.000428351, No Iterations 6
GAMG:  Solving for p, Initial residual = 0.0159538, Final residual = 0.000159323, No Iterations 12
GAMG:  Solving for p, Initial residual = 0.00628095, Final residual = 5.49187e-05, No Iterations 12
time step continuity errors : sum local = 2.54506e-07, global = 7.4654e-08, cumulative = -7.49833e-07
GAMG:  Solving for p, Initial residual = 0.0303348, Final residual = 0.000266554, No Iterations 5
GAMG:  Solving for p, Initial residual = 0.00769149, Final residual = 7.279e-05, No Iterations 8
GAMG:  Solving for p, Initial residual = 0.00296222, Final residual = 2.50025e-05, No Iterations 6
time step continuity errors : sum local = 1.16887e-07, global = -3.31061e-08, cumulative = -7.82939e-07
PIMPLE: iteration 3
DILUPBiCG:  Solving for Ux, Initial residual = 0.000910433, Final residual = 6.98106e-06, No Iterations 1
DILUPBiCG:  Solving for Uy, Initial residual = 0.000153545, Final residual = 7.48895e-06, No Iterations 1
DILUPBiCG:  Solving for Uz, Initial residual = 0.00527195, Final residual = 8.53752e-07, No Iterations 2
GAMG:  Solving for p, Initial residual = 0.0464041, Final residual = 0.000433291, No Iterations 5
GAMG:  Solving for p, Initial residual = 0.0127809, Final residual = 0.000127694, No Iterations 10
GAMG:  Solving for p, Initial residual = 0.00530623, Final residual = 5.01275e-05, No Iterations 10
time step continuity errors : sum local = 2.61649e-07, global = 6.70807e-08, cumulative = -7.15858e-07
GAMG:  Solving for p, Initial residual = 0.00391431, Final residual = 3.63268e-05, No Iterations 16
GAMG:  Solving for p, Initial residual = 0.00230033, Final residual = 2.20601e-05, No Iterations 4
GAMG:  Solving for p, Initial residual = 0.000771268, Final residual = 9.9622e-07, No Iterations 42
time step continuity errors : sum local = 5.20909e-09, global = -1.54745e-09, cumulative = -7.17406e-07
DILUPBiCG:  Solving for omega, Initial residual = 0.00168773, Final residual = 2.26963e-06, No Iterations 1
DILUPBiCG:  Solving for k, Initial residual = 0.00643648, Final residual = 1.02607e-06, No Iterations 2
ExecutionTime = 53.42 s  ClockTime = 54 s

Courant Number mean: 0.274911 max: 0.616184
Time = 0.446

GAMG:  Solving for cellDisplacementx, Initial residual = 0, Final residual = 0, No Iterations 0
GAMG:  Solving for cellDisplacementy, Initial residual = 0, Final residual = 0, No Iterations 0
GAMG:  Solving for cellDisplacementz, Initial residual = 0, Final residual = 0, No Iterations 0
PIMPLE: iteration 1
DILUPBiCG:  Solving for Ux, Initial residual = 0.0144603, Final residual = 5.5735e-05, No Iterations 1
DILUPBiCG:  Solving for Uy, Initial residual = 0.00228334, Final residual = 8.02931e-06, No Iterations 1
DILUPBiCG:  Solving for Uz, Initial residual = 0.0156122, Final residual = 3.53399e-05, No Iterations 1
GAMG:  Solving for p, Initial residual = 0.111058, Final residual = 0.00104251, No Iterations 3
GAMG:  Solving for p, Initial residual = 0.016897, Final residual = 0.000160717, No Iterations 11
GAMG:  Solving for p, Initial residual = 0.00758668, Final residual = 7.37823e-05, No Iterations 4
time step continuity errors : sum local = 3.54519e-07, global = -1.34721e-07, cumulative = -8.52127e-07
GAMG:  Solving for p, Initial residual = 0.0514852, Final residual = 0.000448311, No Iterations 3
GAMG:  Solving for p, Initial residual = 0.00825323, Final residual = 8.23312e-05, No Iterations 9
GAMG:  Solving for p, Initial residual = 0.00372319, Final residual = 3.22004e-05, No Iterations 10
time step continuity errors : sum local = 1.55409e-07, global = -3.95557e-08, cumulative = -8.91683e-07
PIMPLE: iteration 2
DILUPBiCG:  Solving for Ux, Initial residual = 0.00382715, Final residual = 1.86263e-05, No Iterations 1
DILUPBiCG:  Solving for Uy, Initial residual = 0.000625689, Final residual = 6.78732e-06, No Iterations 1
DILUPBiCG:  Solving for Uz, Initial residual = 0.00401357, Final residual = 1.29043e-05, No Iterations 1
GAMG:  Solving for p, Initial residual = 0.0521348, Final residual = 0.00044102, No Iterations 6
GAMG:  Solving for p, Initial residual = 0.0151666, Final residual = 0.000130685, No Iterations 14
GAMG:  Solving for p, Initial residual = 0.00546912, Final residual = 5.37395e-05, No Iterations 12
time step continuity errors : sum local = 2.19083e-07, global = 6.54827e-08, cumulative = -8.262e-07
GAMG:  Solving for p, Initial residual = 0.0278118, Final residual = 0.000275085, No Iterations 5
GAMG:  Solving for p, Initial residual = 0.00726459, Final residual = 6.26855e-05, No Iterations 11
GAMG:  Solving for p, Initial residual = 0.00259058, Final residual = 2.19375e-05, No Iterations 14
time step continuity errors : sum local = 9.02421e-08, global = 2.80365e-08, cumulative = -7.98163e-07
PIMPLE: iteration 3
DILUPBiCG:  Solving for Ux, Initial residual = 0.000693646, Final residual = 5.99334e-06, No Iterations 1
DILUPBiCG:  Solving for Uy, Initial residual = 0.000120691, Final residual = 4.74068e-06, No Iterations 1
DILUPBiCG:  Solving for Uz, Initial residual = 0.00363093, Final residual = 4.26235e-07, No Iterations 2
GAMG:  Solving for p, Initial residual = 0.0489049, Final residual = 0.000458015, No Iterations 5
GAMG:  Solving for p, Initial residual = 0.0139559, Final residual = 0.000130813, No Iterations 12
GAMG:  Solving for p, Initial residual = 0.00593396, Final residual = 5.87359e-05, No Iterations 8
time step continuity errors : sum local = 2.68686e-07, global = 5.8259e-08, cumulative = -7.39904e-07
GAMG:  Solving for p, Initial residual = 0.00433202, Final residual = 4.21283e-05, No Iterations 11
GAMG:  Solving for p, Initial residual = 0.00254509, Final residual = 2.28558e-05, No Iterations 5
GAMG:  Solving for p, Initial residual = 0.000844997, Final residual = 9.01963e-07, No Iterations 40
time step continuity errors : sum local = 4.12736e-09, global = -1.22365e-09, cumulative = -7.41128e-07
DILUPBiCG:  Solving for omega, Initial residual = 0.00159674, Final residual = 2.17004e-06, No Iterations 1
DILUPBiCG:  Solving for k, Initial residual = 0.00626977, Final residual = 9.40764e-07, No Iterations 2
ExecutionTime = 65.05 s  ClockTime = 65 s

Courant Number mean: 0.276545 max: 0.619664
Time = 0.447

GAMG:  Solving for cellDisplacementx, Initial residual = 0, Final residual = 0, No Iterations 0
GAMG:  Solving for cellDisplacementy, Initial residual = 0, Final residual = 0, No Iterations 0
GAMG:  Solving for cellDisplacementz, Initial residual = 0, Final residual = 0, No Iterations 0
PIMPLE: iteration 1
DILUPBiCG:  Solving for Ux, Initial residual = 0.0118176, Final residual = 4.88886e-05, No Iterations 1
DILUPBiCG:  Solving for Uy, Initial residual = 0.00186573, Final residual = 7.35088e-06, No Iterations 1
DILUPBiCG:  Solving for Uz, Initial residual = 0.0121804, Final residual = 2.66672e-05, No Iterations 1
GAMG:  Solving for p, Initial residual = 0.104333, Final residual = 0.000398232, No Iterations 4
GAMG:  Solving for p, Initial residual = 0.0160401, Final residual = 0.000148491, No Iterations 6
GAMG:  Solving for p, Initial residual = 0.00715554, Final residual = 6.88724e-05, No Iterations 8
time step continuity errors : sum local = 2.83875e-07, global = -6.38007e-08, cumulative = -8.04929e-07
GAMG:  Solving for p, Initial residual = 0.0491681, Final residual = 0.000189211, No Iterations 4
GAMG:  Solving for p, Initial residual = 0.00779751, Final residual = 6.75819e-05, No Iterations 6
GAMG:  Solving for p, Initial residual = 0.00350824, Final residual = 3.16817e-05, No Iterations 8
time step continuity errors : sum local = 1.3151e-07, global = -2.92941e-08, cumulative = -8.34223e-07
PIMPLE: iteration 2
DILUPBiCG:  Solving for Ux, Initial residual = 0.00305298, Final residual = 1.75003e-05, No Iterations 1
DILUPBiCG:  Solving for Uy, Initial residual = 0.000498569, Final residual = 7.53606e-06, No Iterations 1
DILUPBiCG:  Solving for Uz, Initial residual = 0.00416281, Final residual = 1.23149e-05, No Iterations 1
GAMG:  Solving for p, Initial residual = 0.0489842, Final residual = 0.00044411, No Iterations 6
GAMG:  Solving for p, Initial residual = 0.0160402, Final residual = 0.000137523, No Iterations 14
GAMG:  Solving for p, Initial residual = 0.00554602, Final residual = 4.82061e-05, No Iterations 14
time step continuity errors : sum local = 1.70359e-07, global = 5.34494e-08, cumulative = -7.80773e-07
GAMG:  Solving for p, Initial residual = 0.0262958, Final residual = 0.000187925, No Iterations 6
GAMG:  Solving for p, Initial residual = 0.00756106, Final residual = 6.66949e-05, No Iterations 12
GAMG:  Solving for p, Initial residual = 0.00252507, Final residual = 2.26353e-05, No Iterations 14
time step continuity errors : sum local = 8.07702e-08, global = 2.51273e-08, cumulative = -7.55646e-07
PIMPLE: iteration 3
DILUPBiCG:  Solving for Ux, Initial residual = 0.000513117, Final residual = 5.30531e-06, No Iterations 1
DILUPBiCG:  Solving for Uy, Initial residual = 9.06056e-05, Final residual = 2.96129e-06, No Iterations 1
DILUPBiCG:  Solving for Uz, Initial residual = 0.00369531, Final residual = 4.21452e-07, No Iterations 2
GAMG:  Solving for p, Initial residual = 0.0526784, Final residual = 0.000466275, No Iterations 5
GAMG:  Solving for p, Initial residual = 0.0150776, Final residual = 0.000142055, No Iterations 12
GAMG:  Solving for p, Initial residual = 0.00646764, Final residual = 6.43799e-05, No Iterations 8
time step continuity errors : sum local = 2.53966e-07, global = 5.48744e-08, cumulative = -7.00772e-07
GAMG:  Solving for p, Initial residual = 0.00474707, Final residual = 3.20812e-05, No Iterations 6
GAMG:  Solving for p, Initial residual = 0.00277373, Final residual = 2.40766e-05, No Iterations 4
GAMG:  Solving for p, Initial residual = 0.00090805, Final residual = 9.08538e-07, No Iterations 35
time step continuity errors : sum local = 3.58275e-09, global = -1.05256e-09, cumulative = -7.01824e-07
DILUPBiCG:  Solving for omega, Initial residual = 0.00151422, Final residual = 2.07629e-06, No Iterations 1
DILUPBiCG:  Solving for k, Initial residual = 0.00609339, Final residual = 8.92709e-07, No Iterations 2
ExecutionTime = 74.87 s  ClockTime = 75 s

Courant Number mean: 0.277836 max: 0.622269
Time = 0.448

GAMG:  Solving for cellDisplacementx, Initial residual = 0, Final residual = 0, No Iterations 0
GAMG:  Solving for cellDisplacementy, Initial residual = 0, Final residual = 0, No Iterations 0
GAMG:  Solving for cellDisplacementz, Initial residual = 0, Final residual = 0, No Iterations 0
PIMPLE: iteration 1
DILUPBiCG:  Solving for Ux, Initial residual = 0.00928656, Final residual = 4.36231e-05, No Iterations 1
DILUPBiCG:  Solving for Uy, Initial residual = 0.00146791, Final residual = 6.95116e-06, No Iterations 1
DILUPBiCG:  Solving for Uz, Initial residual = 0.0126718, Final residual = 3.16712e-05, No Iterations 1
GAMG:  Solving for p, Initial residual = 0.0992882, Final residual = 0.000946528, No Iterations 3
GAMG:  Solving for p, Initial residual = 0.0165688, Final residual = 0.000147763, No Iterations 4
GAMG:  Solving for p, Initial residual = 0.00728052, Final residual = 3.06518e-05, No Iterations 5
time step continuity errors : sum local = 1.04904e-07, global = -5.65685e-09, cumulative = -7.07481e-07
GAMG:  Solving for p, Initial residual = 0.048049, Final residual = 0.000384314, No Iterations 3
GAMG:  Solving for p, Initial residual = 0.00811731, Final residual = 6.44867e-05, No Iterations 4
GAMG:  Solving for p, Initial residual = 0.00355119, Final residual = 1.46214e-05, No Iterations 5
time step continuity errors : sum local = 5.01895e-08, global = 3.28179e-09, cumulative = -7.04199e-07
PIMPLE: iteration 2
DILUPBiCG:  Solving for Ux, Initial residual = 0.00227969, Final residual = 1.70529e-05, No Iterations 1
DILUPBiCG:  Solving for Uy, Initial residual = 0.000375147, Final residual = 9.79651e-06, No Iterations 1
DILUPBiCG:  Solving for Uz, Initial residual = 0.00414628, Final residual = 1.25883e-05, No Iterations 1
GAMG:  Solving for p, Initial residual = 0.0472442, Final residual = 0.000464018, No Iterations 6
GAMG:  Solving for p, Initial residual = 0.0182706, Final residual = 0.000172369, No Iterations 12
GAMG:  Solving for p, Initial residual = 0.00573731, Final residual = 5.03919e-05, No Iterations 16
time step continuity errors : sum local = 1.48412e-07, global = 4.48975e-08, cumulative = -6.59302e-07
GAMG:  Solving for p, Initial residual = 0.0255556, Final residual = 0.000199449, No Iterations 6
GAMG:  Solving for p, Initial residual = 0.00856948, Final residual = 7.18534e-05, No Iterations 12
GAMG:  Solving for p, Initial residual = 0.00266464, Final residual = 2.45153e-05, No Iterations 14
time step continuity errors : sum local = 7.27843e-08, global = 2.24814e-08, cumulative = -6.3682e-07
PIMPLE: iteration 3
DILUPBiCG:  Solving for Ux, Initial residual = 0.000313148, Final residual = 4.02965e-06, No Iterations 1
DILUPBiCG:  Solving for Uy, Initial residual = 6.04264e-05, Final residual = 1.13532e-06, No Iterations 1
DILUPBiCG:  Solving for Uz, Initial residual = 0.0027906, Final residual = 3.91254e-07, No Iterations 2
GAMG:  Solving for p, Initial residual = 0.058091, Final residual = 0.000498054, No Iterations 5
GAMG:  Solving for p, Initial residual = 0.0167346, Final residual = 0.000141155, No Iterations 14
GAMG:  Solving for p, Initial residual = 0.00770643, Final residual = 7.37255e-05, No Iterations 4
time step continuity errors : sum local = 2.39849e-07, global = 7.885e-08, cumulative = -5.5797e-07
GAMG:  Solving for p, Initial residual = 0.00539951, Final residual = 4.83079e-05, No Iterations 7
GAMG:  Solving for p, Initial residual = 0.00300641, Final residual = 2.50509e-05, No Iterations 8
GAMG:  Solving for p, Initial residual = 0.00103588, Final residual = 8.94466e-07, No Iterations 40
time step continuity errors : sum local = 2.90058e-09, global = -8.61516e-10, cumulative = -5.58832e-07
DILUPBiCG:  Solving for omega, Initial residual = 0.00143758, Final residual = 1.98789e-06, No Iterations 1
DILUPBiCG:  Solving for k, Initial residual = 0.00589935, Final residual = 8.78765e-07, No Iterations 2
ExecutionTime = 85.31 s  ClockTime = 85 s

Courant Number mean: 0.278769 max: 0.62407
Time = 0.449

GAMG:  Solving for cellDisplacementx, Initial residual = 0, Final residual = 0, No Iterations 0
GAMG:  Solving for cellDisplacementy, Initial residual = 0, Final residual = 0, No Iterations 0
GAMG:  Solving for cellDisplacementz, Initial residual = 0, Final residual = 0, No Iterations 0
PIMPLE: iteration 1
DILUPBiCG:  Solving for Ux, Initial residual = 0.00667942, Final residual = 4.03272e-05, No Iterations 1
DILUPBiCG:  Solving for Uy, Initial residual = 0.00107299, Final residual = 7.12433e-06, No Iterations 1
DILUPBiCG:  Solving for Uz, Initial residual = 0.0112466, Final residual = 2.95395e-05, No Iterations 1
GAMG:  Solving for p, Initial residual = 0.0937797, Final residual = 0.000564647, No Iterations 4
GAMG:  Solving for p, Initial residual = 0.0209418, Final residual = 0.000182362, No Iterations 10
GAMG:  Solving for p, Initial residual = 0.00912998, Final residual = 8.73627e-05, No Iterations 8
time step continuity errors : sum local = 2.3352e-07, global = 5.70451e-08, cumulative = -5.01787e-07
GAMG:  Solving for p, Initial residual = 0.0472336, Final residual = 0.000246386, No Iterations 4
GAMG:  Solving for p, Initial residual = 0.0102407, Final residual = 9.65425e-05, No Iterations 8
GAMG:  Solving for p, Initial residual = 0.00429149, Final residual = 3.78311e-05, No Iterations 10
time step continuity errors : sum local = 1.01652e-07, global = 2.7367e-08, cumulative = -4.7442e-07
PIMPLE: iteration 2
DILUPBiCG:  Solving for Ux, Initial residual = 0.00150655, Final residual = 1.60443e-05, No Iterations 1
DILUPBiCG:  Solving for Uy, Initial residual = 0.000253272, Final residual = 2.31329e-05, No Iterations 1
DILUPBiCG:  Solving for Uz, Initial residual = 0.00421254, Final residual = 1.33017e-05, No Iterations 1
GAMG:  Solving for p, Initial residual = 0.0463012, Final residual = 0.000302924, No Iterations 6
GAMG:  Solving for p, Initial residual = 0.0222594, Final residual = 0.000213589, No Iterations 8
GAMG:  Solving for p, Initial residual = 0.00631511, Final residual = 5.78211e-05, No Iterations 16
time step continuity errors : sum local = 1.35457e-07, global = 3.99527e-08, cumulative = -4.34467e-07
GAMG:  Solving for p, Initial residual = 0.0254406, Final residual = 0.000253095, No Iterations 5
GAMG:  Solving for p, Initial residual = 0.0106036, Final residual = 0.000104469, No Iterations 7
GAMG:  Solving for p, Initial residual = 0.00305403, Final residual = 2.93039e-05, No Iterations 16
time step continuity errors : sum local = 6.935e-08, global = 2.0555e-08, cumulative = -4.13912e-07
PIMPLE: iteration 3
DILUPBiCG:  Solving for Ux, Initial residual = 0.000138379, Final residual = 2.21755e-06, No Iterations 1
DILUPBiCG:  Solving for Uy, Initial residual = 3.61009e-05, Final residual = 3.46154e-07, No Iterations 1
DILUPBiCG:  Solving for Uz, Initial residual = 0.00249342, Final residual = 2.95325e-07, No Iterations 2
GAMG:  Solving for p, Initial residual = 0.0663264, Final residual = 0.000516731, No Iterations 5
GAMG:  Solving for p, Initial residual = 0.0187968, Final residual = 0.000165163, No Iterations 14
GAMG:  Solving for p, Initial residual = 0.00940323, Final residual = 8.31108e-05, No Iterations 4
time step continuity errors : sum local = 2.12666e-07, global = 7.41559e-08, cumulative = -3.39756e-07
GAMG:  Solving for p, Initial residual = 0.00641085, Final residual = 6.28789e-05, No Iterations 5
GAMG:  Solving for p, Initial residual = 0.00342107, Final residual = 3.275e-05, No Iterations 6
GAMG:  Solving for p, Initial residual = 0.001228, Final residual = 9.70156e-07, No Iterations 42
time step continuity errors : sum local = 2.46564e-09, global = -7.34554e-10, cumulative = -3.40491e-07
DILUPBiCG:  Solving for omega, Initial residual = 0.00136547, Final residual = 1.90313e-06, No Iterations 1
DILUPBiCG:  Solving for k, Initial residual = 0.00569282, Final residual = 9.01595e-07, No Iterations 2
ExecutionTime = 96.98 s  ClockTime = 97 s

Courant Number mean: 0.279345 max: 0.625013
Time = 0.45

GAMG:  Solving for cellDisplacementx, Initial residual = 0, Final residual = 0, No Iterations 0
GAMG:  Solving for cellDisplacementy, Initial residual = 0, Final residual = 0, No Iterations 0
GAMG:  Solving for cellDisplacementz, Initial residual = 0, Final residual = 0, No Iterations 0
PIMPLE: iteration 1
DILUPBiCG:  Solving for Ux, Initial residual = 0.00414508, Final residual = 3.8595e-05, No Iterations 1
DILUPBiCG:  Solving for Uy, Initial residual = 0.000695825, Final residual = 1.14507e-05, No Iterations 1
DILUPBiCG:  Solving for Uz, Initial residual = 0.0121378, Final residual = 3.35748e-05, No Iterations 1
GAMG:  Solving for p, Initial residual = 0.0889369, Final residual = 0.000776254, No Iterations 7
GAMG:  Solving for p, Initial residual = 0.0387401, Final residual = 0.000332947, No Iterations 10
GAMG:  Solving for p, Initial residual = 0.0126073, Final residual = 0.000122742, No Iterations 12
time step continuity errors : sum local = 2.30066e-07, global = 6.93032e-08, cumulative = -2.71188e-07
GAMG:  Solving for p, Initial residual = 0.0485716, Final residual = 0.00044939, No Iterations 5
GAMG:  Solving for p, Initial residual = 0.0183704, Final residual = 0.000157703, No Iterations 10
GAMG:  Solving for p, Initial residual = 0.00612126, Final residual = 5.88581e-05, No Iterations 12
time step continuity errors : sum local = 1.11737e-07, global = 3.34904e-08, cumulative = -2.37697e-07
PIMPLE: iteration 2
DILUPBiCG:  Solving for Ux, Initial residual = 0.000743537, Final residual = 1.06855e-05, No Iterations 1
DILUPBiCG:  Solving for Uy, Initial residual = 0.000137125, Final residual = 6.88705e-06, No Iterations 1
DILUPBiCG:  Solving for Uz, Initial residual = 0.00422469, Final residual = 1.32296e-05, No Iterations 1
GAMG:  Solving for p, Initial residual = 0.0473709, Final residual = 0.000419382, No Iterations 13
GAMG:  Solving for p, Initial residual = 0.0284662, Final residual = 0.000256341, No Iterations 8
GAMG:  Solving for p, Initial residual = 0.00814422, Final residual = 7.98475e-05, No Iterations 14
time step continuity errors : sum local = 1.37637e-07, global = 4.13934e-08, cumulative = -1.96304e-07
GAMG:  Solving for p, Initial residual = 0.0266203, Final residual = 0.000230546, No Iterations 9
GAMG:  Solving for p, Initial residual = 0.0129773, Final residual = 0.000114552, No Iterations 10
GAMG:  Solving for p, Initial residual = 0.00411404, Final residual = 3.75103e-05, No Iterations 14
time step continuity errors : sum local = 6.52593e-08, global = 1.99234e-08, cumulative = -1.7638e-07
PIMPLE: iteration 3
DILUPBiCG:  Solving for Ux, Initial residual = 0.000108919, Final residual = 1.71169e-06, No Iterations 1
DILUPBiCG:  Solving for Uy, Initial residual = 3.45433e-05, Final residual = 2.17625e-07, No Iterations 1
DILUPBiCG:  Solving for Uz, Initial residual = 0.001949, Final residual = 2.27169e-07, No Iterations 2
GAMG:  Solving for p, Initial residual = 0.0811775, Final residual = 0.000485622, No Iterations 5
GAMG:  Solving for p, Initial residual = 0.022602, Final residual = 0.000204559, No Iterations 12
GAMG:  Solving for p, Initial residual = 0.0126996, Final residual = 0.000120701, No Iterations 4
time step continuity errors : sum local = 2.21697e-07, global = 6.74123e-08, cumulative = -1.08968e-07
GAMG:  Solving for p, Initial residual = 0.00841679, Final residual = 5.68166e-05, No Iterations 5
GAMG:  Solving for p, Initial residual = 0.00454795, Final residual = 2.6872e-05, No Iterations 4
GAMG:  Solving for p, Initial residual = 0.00152589, Final residual = 9.07127e-07, No Iterations 28
time step continuity errors : sum local = 1.64757e-09, global = -4.99888e-10, cumulative = -1.09468e-07
DILUPBiCG:  Solving for omega, Initial residual = 0.00129664, Final residual = 1.82099e-06, No Iterations 1
DILUPBiCG:  Solving for k, Initial residual = 0.00548015, Final residual = 9.53167e-07, No Iterations 2
ExecutionTime = 103.68 s  ClockTime = 104 s

End

