/*---------------------------------------------------------------------------*\
| =========                 |                                                 |
| \\      /  F ield         | OpenFOAM: The Open Source CFD Toolbox           |
|  \\    /   O peration     | Version:  2.3.1                                 |
|   \\  /    A nd           | Web:      www.OpenFOAM.org                      |
|    \\/     M anipulation  |                                                 |
\*---------------------------------------------------------------------------*/
Build  : 2.3.1-262087cdf8db
Exec   : pimpleDyMFoam
Date   : Jun 04 2023
Time   : 16:49:48
Host   : "jcosson-VirtualBox"
PID    : 2915
Case   : /home/jcosson/workspace/henersj_shootingdata/calcs/moderate_deformed/primal/10_intervals_04-06-23/sweep1/interval8
nProcs : 1
sigFpe : Enabling floating point exception trapping (FOAM_SIGFPE).
fileModificationChecking : Monitoring run-time modified files using timeStampMaster
allowSystemOperations : Allowing user-supplied system call operations

// * * * * * * * * * * * * * * * * * * * * * * * * * * * * * * * * * * * * * //
Create time

Create mesh for time = 0.47

Selecting dynamicFvMesh dynamicMotionSolverFvMesh
Selecting motion solver: displacementLaplacian
Selecting motion diffusion: quadratic
Selecting motion diffusion: quadratic
Selecting motion diffusion: inverseDistance

PIMPLE: no residual control data found. Calculations will employ 3 corrector loops

Reading field p

Reading field U

Reading/calculating face flux field phi

Selecting incompressible transport model Newtonian
Selecting turbulence model type RASModel
Selecting RAS turbulence model kOmegaSST
kOmegaSSTCoeffs
{
    alphaK1         0.85034;
    alphaK2         1;
    alphaOmega1     0.5;
    alphaOmega2     0.85616;
    gamma1          0.5532;
    gamma2          0.4403;
    beta1           0.075;
    beta2           0.0828;
    betaStar        0.09;
    a1              0.31;
    c1              10;
    Cmu             0.09;
    b1              1;
    F3              false;
}

Reading/calculating face velocity Uf

No finite volume options present

Courant Number mean: 0.218192 max: 0.501065

Starting time loop

Courant Number mean: 0.218192 max: 0.501065
Time = 0.471

GAMG:  Solving for cellDisplacementx, Initial residual = 0, Final residual = 0, No Iterations 0
GAMG:  Solving for cellDisplacementy, Initial residual = 0, Final residual = 0, No Iterations 0
GAMG:  Solving for cellDisplacementz, Initial residual = 0, Final residual = 0, No Iterations 0
PIMPLE: iteration 1
DILUPBiCG:  Solving for Ux, Initial residual = 0.0492918, Final residual = 0.000227499, No Iterations 1
DILUPBiCG:  Solving for Uy, Initial residual = 0.00833397, Final residual = 2.51408e-05, No Iterations 1
DILUPBiCG:  Solving for Uz, Initial residual = 0.217391, Final residual = 0.000777795, No Iterations 1
GAMG:  Solving for p, Initial residual = 0.305755, Final residual = 0.00276211, No Iterations 10
GAMG:  Solving for p, Initial residual = 0.053023, Final residual = 0.000520165, No Iterations 6
GAMG:  Solving for p, Initial residual = 0.0196477, Final residual = 0.000182226, No Iterations 10
time step continuity errors : sum local = 2.7499e-06, global = 6.28603e-07, cumulative = 6.28603e-07
GAMG:  Solving for p, Initial residual = 0.105484, Final residual = 0.000848512, No Iterations 10
GAMG:  Solving for p, Initial residual = 0.0237127, Final residual = 0.000174077, No Iterations 8
GAMG:  Solving for p, Initial residual = 0.00914879, Final residual = 7.21472e-05, No Iterations 10
time step continuity errors : sum local = 1.08908e-06, global = 2.58923e-07, cumulative = 8.87526e-07
PIMPLE: iteration 2
DILUPBiCG:  Solving for Ux, Initial residual = 0.0170773, Final residual = 9.09992e-05, No Iterations 1
DILUPBiCG:  Solving for Uy, Initial residual = 0.00328207, Final residual = 2.60333e-05, No Iterations 1
DILUPBiCG:  Solving for Uz, Initial residual = 0.0593759, Final residual = 0.000224259, No Iterations 1
GAMG:  Solving for p, Initial residual = 0.103409, Final residual = 0.000931676, No Iterations 9
GAMG:  Solving for p, Initial residual = 0.0266736, Final residual = 0.000264206, No Iterations 12
GAMG:  Solving for p, Initial residual = 0.0111498, Final residual = 0.000101203, No Iterations 10
time step continuity errors : sum local = 1.31455e-06, global = -4.6818e-07, cumulative = 4.19346e-07
GAMG:  Solving for p, Initial residual = 0.048026, Final residual = 0.00046464, No Iterations 7
GAMG:  Solving for p, Initial residual = 0.0123129, Final residual = 0.000106979, No Iterations 14
GAMG:  Solving for p, Initial residual = 0.00525965, Final residual = 4.7595e-05, No Iterations 9
time step continuity errors : sum local = 6.19349e-07, global = 2.02103e-07, cumulative = 6.21449e-07
PIMPLE: iteration 3
DILUPBiCG:  Solving for Ux, Initial residual = 0.00553568, Final residual = 2.33091e-06, No Iterations 2
DILUPBiCG:  Solving for Uy, Initial residual = 0.0026172, Final residual = 2.34727e-06, No Iterations 2
DILUPBiCG:  Solving for Uz, Initial residual = 0.0163569, Final residual = 5.2735e-06, No Iterations 2
GAMG:  Solving for p, Initial residual = 0.0350244, Final residual = 0.000288212, No Iterations 6
GAMG:  Solving for p, Initial residual = 0.00817203, Final residual = 6.33806e-05, No Iterations 5
GAMG:  Solving for p, Initial residual = 0.00269618, Final residual = 2.67064e-05, No Iterations 10
time step continuity errors : sum local = 3.87246e-07, global = -1.02649e-07, cumulative = 5.188e-07
GAMG:  Solving for p, Initial residual = 0.00264253, Final residual = 2.33093e-05, No Iterations 10
GAMG:  Solving for p, Initial residual = 0.00165729, Final residual = 1.65418e-05, No Iterations 5
GAMG:  Solving for p, Initial residual = 0.000545078, Final residual = 9.90139e-07, No Iterations 32
time step continuity errors : sum local = 1.44046e-08, global = 4.25608e-09, cumulative = 5.23056e-07
DILUPBiCG:  Solving for omega, Initial residual = 0.00223597, Final residual = 2.9677e-06, No Iterations 1
DILUPBiCG:  Solving for k, Initial residual = 0.00601736, Final residual = 2.26214e-06, No Iterations 2
ExecutionTime = 12.96 s  ClockTime = 13 s

Courant Number mean: 0.211252 max: 0.470876
Time = 0.472

GAMG:  Solving for cellDisplacementx, Initial residual = 0, Final residual = 0, No Iterations 0
GAMG:  Solving for cellDisplacementy, Initial residual = 0, Final residual = 0, No Iterations 0
GAMG:  Solving for cellDisplacementz, Initial residual = 0, Final residual = 0, No Iterations 0
PIMPLE: iteration 1
DILUPBiCG:  Solving for Ux, Initial residual = 0.0649556, Final residual = 0.000209235, No Iterations 1
DILUPBiCG:  Solving for Uy, Initial residual = 0.0150044, Final residual = 7.75931e-05, No Iterations 1
DILUPBiCG:  Solving for Uz, Initial residual = 0.194399, Final residual = 0.000454003, No Iterations 1
GAMG:  Solving for p, Initial residual = 0.241948, Final residual = 0.00221507, No Iterations 11
GAMG:  Solving for p, Initial residual = 0.0610888, Final residual = 0.000598508, No Iterations 13
GAMG:  Solving for p, Initial residual = 0.0227649, Final residual = 0.000185471, No Iterations 10
time step continuity errors : sum local = 2.58883e-06, global = 6.73068e-07, cumulative = 1.19612e-06
GAMG:  Solving for p, Initial residual = 0.106902, Final residual = 0.00100806, No Iterations 7
GAMG:  Solving for p, Initial residual = 0.0321884, Final residual = 0.000300142, No Iterations 11
GAMG:  Solving for p, Initial residual = 0.0132235, Final residual = 0.000116868, No Iterations 10
time step continuity errors : sum local = 1.66119e-06, global = 4.39563e-07, cumulative = 1.63569e-06
PIMPLE: iteration 2
DILUPBiCG:  Solving for Ux, Initial residual = 0.016772, Final residual = 8.38442e-05, No Iterations 1
DILUPBiCG:  Solving for Uy, Initial residual = 0.00257865, Final residual = 1.00205e-05, No Iterations 1
DILUPBiCG:  Solving for Uz, Initial residual = 0.0151087, Final residual = 4.25361e-05, No Iterations 1
GAMG:  Solving for p, Initial residual = 0.117771, Final residual = 0.00100284, No Iterations 5
GAMG:  Solving for p, Initial residual = 0.0404268, Final residual = 0.000292484, No Iterations 6
GAMG:  Solving for p, Initial residual = 0.0174272, Final residual = 0.000169343, No Iterations 4
time step continuity errors : sum local = 2.03481e-06, global = -3.8128e-07, cumulative = 1.25441e-06
GAMG:  Solving for p, Initial residual = 0.0653505, Final residual = 0.000434376, No Iterations 5
GAMG:  Solving for p, Initial residual = 0.0247639, Final residual = 0.000160283, No Iterations 4
GAMG:  Solving for p, Initial residual = 0.00934944, Final residual = 8.86768e-05, No Iterations 4
time step continuity errors : sum local = 1.06854e-06, global = -1.77809e-07, cumulative = 1.0766e-06
PIMPLE: iteration 3
DILUPBiCG:  Solving for Ux, Initial residual = 0.00326764, Final residual = 3.48456e-06, No Iterations 2
DILUPBiCG:  Solving for Uy, Initial residual = 0.00208409, Final residual = 9.0636e-07, No Iterations 2
DILUPBiCG:  Solving for Uz, Initial residual = 0.040083, Final residual = 8.72828e-06, No Iterations 2
GAMG:  Solving for p, Initial residual = 0.0510504, Final residual = 0.000464633, No Iterations 6
GAMG:  Solving for p, Initial residual = 0.0182204, Final residual = 0.000162766, No Iterations 8
GAMG:  Solving for p, Initial residual = 0.007167, Final residual = 7.09145e-05, No Iterations 10
time step continuity errors : sum local = 9.80226e-07, global = -2.47007e-07, cumulative = 8.2959e-07
GAMG:  Solving for p, Initial residual = 0.00597998, Final residual = 4.78625e-05, No Iterations 9
GAMG:  Solving for p, Initial residual = 0.00481476, Final residual = 3.95718e-05, No Iterations 4
GAMG:  Solving for p, Initial residual = 0.00172922, Final residual = 9.22723e-07, No Iterations 24
time step continuity errors : sum local = 1.27523e-08, global = 3.57741e-09, cumulative = 8.33167e-07
DILUPBiCG:  Solving for omega, Initial residual = 0.00191142, Final residual = 2.56921e-06, No Iterations 1
DILUPBiCG:  Solving for k, Initial residual = 0.00565085, Final residual = 1.60989e-06, No Iterations 2
ExecutionTime = 20.7 s  ClockTime = 21 s

Courant Number mean: 0.205649 max: 0.458035
Time = 0.473

GAMG:  Solving for cellDisplacementx, Initial residual = 0, Final residual = 0, No Iterations 0
GAMG:  Solving for cellDisplacementy, Initial residual = 0, Final residual = 0, No Iterations 0
GAMG:  Solving for cellDisplacementz, Initial residual = 0, Final residual = 0, No Iterations 0
PIMPLE: iteration 1
DILUPBiCG:  Solving for Ux, Initial residual = 0.0564942, Final residual = 0.000229453, No Iterations 1
DILUPBiCG:  Solving for Uy, Initial residual = 0.00917945, Final residual = 2.43695e-05, No Iterations 1
DILUPBiCG:  Solving for Uz, Initial residual = 0.160173, Final residual = 0.000318985, No Iterations 1
GAMG:  Solving for p, Initial residual = 0.175147, Final residual = 0.00171597, No Iterations 4
GAMG:  Solving for p, Initial residual = 0.0342077, Final residual = 0.000314099, No Iterations 20
GAMG:  Solving for p, Initial residual = 0.0160141, Final residual = 0.00014295, No Iterations 5
time step continuity errors : sum local = 1.93678e-06, global = -6.73644e-07, cumulative = 1.59524e-07
GAMG:  Solving for p, Initial residual = 0.0741221, Final residual = 0.000572131, No Iterations 4
GAMG:  Solving for p, Initial residual = 0.0167712, Final residual = 0.00014756, No Iterations 16
GAMG:  Solving for p, Initial residual = 0.00823521, Final residual = 6.64249e-05, No Iterations 5
time step continuity errors : sum local = 8.90774e-07, global = -3.20922e-07, cumulative = -1.61399e-07
PIMPLE: iteration 2
DILUPBiCG:  Solving for Ux, Initial residual = 0.0155016, Final residual = 9.33788e-05, No Iterations 1
DILUPBiCG:  Solving for Uy, Initial residual = 0.00269729, Final residual = 6.95404e-06, No Iterations 1
DILUPBiCG:  Solving for Uz, Initial residual = 0.0113372, Final residual = 4.60071e-05, No Iterations 1
GAMG:  Solving for p, Initial residual = 0.081207, Final residual = 0.000535582, No Iterations 6
GAMG:  Solving for p, Initial residual = 0.0205272, Final residual = 0.000185296, No Iterations 12
GAMG:  Solving for p, Initial residual = 0.0111199, Final residual = 0.000110829, No Iterations 8
time step continuity errors : sum local = 1.25942e-06, global = -2.72839e-07, cumulative = -4.34237e-07
GAMG:  Solving for p, Initial residual = 0.0425148, Final residual = 0.000259759, No Iterations 6
GAMG:  Solving for p, Initial residual = 0.0104661, Final residual = 9.02711e-05, No Iterations 12
GAMG:  Solving for p, Initial residual = 0.00581062, Final residual = 5.24133e-05, No Iterations 8
time step continuity errors : sum local = 5.91657e-07, global = -1.2757e-07, cumulative = -5.61807e-07
PIMPLE: iteration 3
DILUPBiCG:  Solving for Ux, Initial residual = 0.00338258, Final residual = 2.25775e-06, No Iterations 2
DILUPBiCG:  Solving for Uy, Initial residual = 0.000786141, Final residual = 6.98473e-06, No Iterations 1
DILUPBiCG:  Solving for Uz, Initial residual = 0.0147558, Final residual = 1.97551e-06, No Iterations 2
GAMG:  Solving for p, Initial residual = 0.0422184, Final residual = 0.000299772, No Iterations 6
GAMG:  Solving for p, Initial residual = 0.0107465, Final residual = 0.000105672, No Iterations 9
GAMG:  Solving for p, Initial residual = 0.00552656, Final residual = 4.71306e-05, No Iterations 10
time step continuity errors : sum local = 6.01474e-07, global = -1.51358e-07, cumulative = -7.13165e-07
GAMG:  Solving for p, Initial residual = 0.00345616, Final residual = 3.37452e-05, No Iterations 10
GAMG:  Solving for p, Initial residual = 0.00184591, Final residual = 1.68807e-05, No Iterations 4
GAMG:  Solving for p, Initial residual = 0.000695047, Final residual = 9.17989e-07, No Iterations 40
time step continuity errors : sum local = 1.16465e-08, global = 3.4451e-09, cumulative = -7.09719e-07
DILUPBiCG:  Solving for omega, Initial residual = 0.00164348, Final residual = 2.2791e-06, No Iterations 1
DILUPBiCG:  Solving for k, Initial residual = 0.00531319, Final residual = 1.78097e-06, No Iterations 2
ExecutionTime = 28.87 s  ClockTime = 29 s

Courant Number mean: 0.200007 max: 0.445204
Time = 0.474

GAMG:  Solving for cellDisplacementx, Initial residual = 0, Final residual = 0, No Iterations 0
GAMG:  Solving for cellDisplacementy, Initial residual = 0, Final residual = 0, No Iterations 0
GAMG:  Solving for cellDisplacementz, Initial residual = 0, Final residual = 0, No Iterations 0
PIMPLE: iteration 1
DILUPBiCG:  Solving for Ux, Initial residual = 0.0535631, Final residual = 0.000221189, No Iterations 1
DILUPBiCG:  Solving for Uy, Initial residual = 0.00949068, Final residual = 2.35843e-05, No Iterations 1
DILUPBiCG:  Solving for Uz, Initial residual = 0.0794829, Final residual = 0.000174923, No Iterations 1
GAMG:  Solving for p, Initial residual = 0.152918, Final residual = 0.00150697, No Iterations 4
GAMG:  Solving for p, Initial residual = 0.0241763, Final residual = 0.000233681, No Iterations 22
GAMG:  Solving for p, Initial residual = 0.0111902, Final residual = 9.03396e-05, No Iterations 10
time step continuity errors : sum local = 1.27928e-06, global = 3.31589e-07, cumulative = -3.7813e-07
GAMG:  Solving for p, Initial residual = 0.061975, Final residual = 0.000535613, No Iterations 4
GAMG:  Solving for p, Initial residual = 0.0112165, Final residual = 9.69652e-05, No Iterations 22
GAMG:  Solving for p, Initial residual = 0.00555165, Final residual = 5.31462e-05, No Iterations 8
time step continuity errors : sum local = 7.59931e-07, global = 1.65625e-07, cumulative = -2.12505e-07
PIMPLE: iteration 2
DILUPBiCG:  Solving for Ux, Initial residual = 0.0158432, Final residual = 9.69453e-05, No Iterations 1
DILUPBiCG:  Solving for Uy, Initial residual = 0.00278188, Final residual = 6.60098e-06, No Iterations 1
DILUPBiCG:  Solving for Uz, Initial residual = 0.00584152, Final residual = 1.69329e-05, No Iterations 1
GAMG:  Solving for p, Initial residual = 0.0640582, Final residual = 0.000582858, No Iterations 4
GAMG:  Solving for p, Initial residual = 0.0141023, Final residual = 0.000135722, No Iterations 16
GAMG:  Solving for p, Initial residual = 0.00732947, Final residual = 6.37286e-05, No Iterations 7
time step continuity errors : sum local = 7.7555e-07, global = 1.77658e-07, cumulative = -3.4847e-08
GAMG:  Solving for p, Initial residual = 0.0325358, Final residual = 0.000252248, No Iterations 4
GAMG:  Solving for p, Initial residual = 0.00691976, Final residual = 6.13016e-05, No Iterations 16
GAMG:  Solving for p, Initial residual = 0.0034624, Final residual = 3.37864e-05, No Iterations 5
time step continuity errors : sum local = 4.1434e-07, global = 1.48283e-07, cumulative = 1.13436e-07
PIMPLE: iteration 3
DILUPBiCG:  Solving for Ux, Initial residual = 0.00410124, Final residual = 2.50098e-06, No Iterations 2
DILUPBiCG:  Solving for Uy, Initial residual = 0.000721091, Final residual = 6.14796e-06, No Iterations 1
DILUPBiCG:  Solving for Uz, Initial residual = 0.0173118, Final residual = 5.63026e-06, No Iterations 2
GAMG:  Solving for p, Initial residual = 0.0376551, Final residual = 0.000350786, No Iterations 5
GAMG:  Solving for p, Initial residual = 0.00801192, Final residual = 7.23787e-05, No Iterations 17
GAMG:  Solving for p, Initial residual = 0.00366172, Final residual = 3.47571e-05, No Iterations 10
time step continuity errors : sum local = 4.78532e-07, global = -1.24157e-07, cumulative = -1.07215e-08
GAMG:  Solving for p, Initial residual = 0.00215874, Final residual = 2.15579e-05, No Iterations 16
GAMG:  Solving for p, Initial residual = 0.00132873, Final residual = 1.29471e-05, No Iterations 4
GAMG:  Solving for p, Initial residual = 0.000507752, Final residual = 9.39377e-07, No Iterations 26
time step continuity errors : sum local = 1.29433e-08, global = 3.86422e-09, cumulative = -6.85728e-09
DILUPBiCG:  Solving for omega, Initial residual = 0.00142441, Final residual = 2.03192e-06, No Iterations 1
DILUPBiCG:  Solving for k, Initial residual = 0.00504609, Final residual = 1.7135e-06, No Iterations 2
ExecutionTime = 38.83 s  ClockTime = 39 s

Courant Number mean: 0.19434 max: 0.432156
Time = 0.475

GAMG:  Solving for cellDisplacementx, Initial residual = 0, Final residual = 0, No Iterations 0
GAMG:  Solving for cellDisplacementy, Initial residual = 0, Final residual = 0, No Iterations 0
GAMG:  Solving for cellDisplacementz, Initial residual = 0, Final residual = 0, No Iterations 0
PIMPLE: iteration 1
DILUPBiCG:  Solving for Ux, Initial residual = 0.0580362, Final residual = 0.000235587, No Iterations 1
DILUPBiCG:  Solving for Uy, Initial residual = 0.0096392, Final residual = 2.29213e-05, No Iterations 1
DILUPBiCG:  Solving for Uz, Initial residual = 0.0454818, Final residual = 7.93291e-05, No Iterations 1
GAMG:  Solving for p, Initial residual = 0.133153, Final residual = 0.0010147, No Iterations 6
GAMG:  Solving for p, Initial residual = 0.0180807, Final residual = 0.00018, No Iterations 16
GAMG:  Solving for p, Initial residual = 0.00802954, Final residual = 7.9179e-05, No Iterations 4
time step continuity errors : sum local = 1.13608e-06, global = 4.23285e-07, cumulative = 4.16428e-07
GAMG:  Solving for p, Initial residual = 0.0569755, Final residual = 0.000510999, No Iterations 4
GAMG:  Solving for p, Initial residual = 0.0089254, Final residual = 7.77538e-05, No Iterations 16
GAMG:  Solving for p, Initial residual = 0.00405548, Final residual = 3.21077e-05, No Iterations 4
time step continuity errors : sum local = 4.59609e-07, global = 1.66736e-07, cumulative = 5.83163e-07
PIMPLE: iteration 2
DILUPBiCG:  Solving for Ux, Initial residual = 0.0162771, Final residual = 9.90534e-05, No Iterations 1
DILUPBiCG:  Solving for Uy, Initial residual = 0.00288693, Final residual = 6.84476e-06, No Iterations 1
DILUPBiCG:  Solving for Uz, Initial residual = 0.00535724, Final residual = 2.57226e-05, No Iterations 1
GAMG:  Solving for p, Initial residual = 0.0580394, Final residual = 0.000522224, No Iterations 4
GAMG:  Solving for p, Initial residual = 0.0103191, Final residual = 9.47759e-05, No Iterations 16
GAMG:  Solving for p, Initial residual = 0.0048519, Final residual = 4.36747e-05, No Iterations 4
time step continuity errors : sum local = 5.30609e-07, global = -1.95082e-07, cumulative = 3.88081e-07
GAMG:  Solving for p, Initial residual = 0.0298377, Final residual = 0.000243595, No Iterations 4
GAMG:  Solving for p, Initial residual = 0.00516257, Final residual = 4.78977e-05, No Iterations 14
GAMG:  Solving for p, Initial residual = 0.00235433, Final residual = 2.18749e-05, No Iterations 4
time step continuity errors : sum local = 2.66559e-07, global = -9.66867e-08, cumulative = 2.91394e-07
PIMPLE: iteration 3
DILUPBiCG:  Solving for Ux, Initial residual = 0.00380235, Final residual = 2.49249e-06, No Iterations 2
DILUPBiCG:  Solving for Uy, Initial residual = 0.000739734, Final residual = 6.45689e-06, No Iterations 1
DILUPBiCG:  Solving for Uz, Initial residual = 0.00551365, Final residual = 2.51861e-06, No Iterations 2
GAMG:  Solving for p, Initial residual = 0.0381765, Final residual = 0.000368626, No Iterations 5
GAMG:  Solving for p, Initial residual = 0.00861009, Final residual = 7.60491e-05, No Iterations 17
GAMG:  Solving for p, Initial residual = 0.00432512, Final residual = 3.99278e-05, No Iterations 8
time step continuity errors : sum local = 5.47602e-07, global = -1.11194e-07, cumulative = 1.80201e-07
GAMG:  Solving for p, Initial residual = 0.00243216, Final residual = 2.30022e-05, No Iterations 18
GAMG:  Solving for p, Initial residual = 0.00132013, Final residual = 1.12932e-05, No Iterations 4
GAMG:  Solving for p, Initial residual = 0.000519319, Final residual = 9.87486e-07, No Iterations 32
time step continuity errors : sum local = 1.34794e-08, global = 3.96695e-09, cumulative = 1.84168e-07
DILUPBiCG:  Solving for omega, Initial residual = 0.0012481, Final residual = 1.84663e-06, No Iterations 1
DILUPBiCG:  Solving for k, Initial residual = 0.00481345, Final residual = 1.65693e-06, No Iterations 2
ExecutionTime = 50.38 s  ClockTime = 51 s

Courant Number mean: 0.188644 max: 0.418923
Time = 0.476

GAMG:  Solving for cellDisplacementx, Initial residual = 0, Final residual = 0, No Iterations 0
GAMG:  Solving for cellDisplacementy, Initial residual = 0, Final residual = 0, No Iterations 0
GAMG:  Solving for cellDisplacementz, Initial residual = 0, Final residual = 0, No Iterations 0
PIMPLE: iteration 1
DILUPBiCG:  Solving for Ux, Initial residual = 0.0579625, Final residual = 0.000234285, No Iterations 1
DILUPBiCG:  Solving for Uy, Initial residual = 0.0100681, Final residual = 2.37862e-05, No Iterations 1
DILUPBiCG:  Solving for Uz, Initial residual = 0.0376787, Final residual = 7.83927e-05, No Iterations 1
GAMG:  Solving for p, Initial residual = 0.128916, Final residual = 0.00113329, No Iterations 6
GAMG:  Solving for p, Initial residual = 0.0161022, Final residual = 0.000158032, No Iterations 20
GAMG:  Solving for p, Initial residual = 0.00741604, Final residual = 5.96401e-05, No Iterations 10
time step continuity errors : sum local = 8.75423e-07, global = 2.23204e-07, cumulative = 4.07371e-07
GAMG:  Solving for p, Initial residual = 0.0541124, Final residual = 0.00053662, No Iterations 4
GAMG:  Solving for p, Initial residual = 0.00793936, Final residual = 6.75416e-05, No Iterations 22
GAMG:  Solving for p, Initial residual = 0.00390021, Final residual = 3.37564e-05, No Iterations 8
time step continuity errors : sum local = 4.97972e-07, global = 1.04851e-07, cumulative = 5.12223e-07
PIMPLE: iteration 2
DILUPBiCG:  Solving for Ux, Initial residual = 0.0166437, Final residual = 0.000101034, No Iterations 1
DILUPBiCG:  Solving for Uy, Initial residual = 0.00296616, Final residual = 6.82027e-06, No Iterations 1
DILUPBiCG:  Solving for Uz, Initial residual = 0.00447971, Final residual = 1.48261e-05, No Iterations 1
GAMG:  Solving for p, Initial residual = 0.05447, Final residual = 0.000512894, No Iterations 4
GAMG:  Solving for p, Initial residual = 0.00966673, Final residual = 8.86459e-05, No Iterations 18
GAMG:  Solving for p, Initial residual = 0.00487482, Final residual = 4.35728e-05, No Iterations 7
time step continuity errors : sum local = 5.47362e-07, global = 1.43524e-07, cumulative = 6.55747e-07
GAMG:  Solving for p, Initial residual = 0.027996, Final residual = 0.00022157, No Iterations 4
GAMG:  Solving for p, Initial residual = 0.00479657, Final residual = 4.22825e-05, No Iterations 16
GAMG:  Solving for p, Initial residual = 0.00227099, Final residual = 2.10659e-05, No Iterations 7
time step continuity errors : sum local = 2.66472e-07, global = 8.50603e-08, cumulative = 7.40807e-07
PIMPLE: iteration 3
DILUPBiCG:  Solving for Ux, Initial residual = 0.00409704, Final residual = 2.63692e-06, No Iterations 2
DILUPBiCG:  Solving for Uy, Initial residual = 0.000733314, Final residual = 6.2539e-06, No Iterations 1
DILUPBiCG:  Solving for Uz, Initial residual = 0.0120818, Final residual = 4.43958e-06, No Iterations 2
GAMG:  Solving for p, Initial residual = 0.0381543, Final residual = 0.000336237, No Iterations 5
GAMG:  Solving for p, Initial residual = 0.00836337, Final residual = 7.3378e-05, No Iterations 17
GAMG:  Solving for p, Initial residual = 0.0040273, Final residual = 3.34378e-05, No Iterations 10
time step continuity errors : sum local = 4.74912e-07, global = -1.23471e-07, cumulative = 6.17336e-07
GAMG:  Solving for p, Initial residual = 0.00221238, Final residual = 2.00454e-05, No Iterations 18
GAMG:  Solving for p, Initial residual = 0.0012658, Final residual = 1.20923e-05, No Iterations 4
GAMG:  Solving for p, Initial residual = 0.000506333, Final residual = 9.30468e-07, No Iterations 28
time step continuity errors : sum local = 1.31774e-08, global = 3.96922e-09, cumulative = 6.21306e-07
DILUPBiCG:  Solving for omega, Initial residual = 0.00111424, Final residual = 1.68823e-06, No Iterations 1
DILUPBiCG:  Solving for k, Initial residual = 0.00463788, Final residual = 1.55929e-06, No Iterations 2
ExecutionTime = 59.31 s  ClockTime = 59 s

Courant Number mean: 0.182961 max: 0.405804
Time = 0.477

GAMG:  Solving for cellDisplacementx, Initial residual = 0, Final residual = 0, No Iterations 0
GAMG:  Solving for cellDisplacementy, Initial residual = 0, Final residual = 0, No Iterations 0
GAMG:  Solving for cellDisplacementz, Initial residual = 0, Final residual = 0, No Iterations 0
PIMPLE: iteration 1
DILUPBiCG:  Solving for Ux, Initial residual = 0.0607263, Final residual = 0.000242489, No Iterations 1
DILUPBiCG:  Solving for Uy, Initial residual = 0.0102996, Final residual = 2.37184e-05, No Iterations 1
DILUPBiCG:  Solving for Uz, Initial residual = 0.0282212, Final residual = 3.76398e-05, No Iterations 1
GAMG:  Solving for p, Initial residual = 0.123976, Final residual = 0.000917879, No Iterations 6
GAMG:  Solving for p, Initial residual = 0.0151435, Final residual = 0.000136751, No Iterations 18
GAMG:  Solving for p, Initial residual = 0.00670624, Final residual = 6.32674e-05, No Iterations 8
time step continuity errors : sum local = 9.34302e-07, global = 1.9506e-07, cumulative = 8.16366e-07
GAMG:  Solving for p, Initial residual = 0.0532356, Final residual = 0.000480395, No Iterations 4
GAMG:  Solving for p, Initial residual = 0.00755024, Final residual = 7.34342e-05, No Iterations 16
GAMG:  Solving for p, Initial residual = 0.00347538, Final residual = 3.31077e-05, No Iterations 10
time step continuity errors : sum local = 4.8794e-07, global = 1.24898e-07, cumulative = 9.41263e-07
PIMPLE: iteration 2
DILUPBiCG:  Solving for Ux, Initial residual = 0.0169302, Final residual = 0.000102613, No Iterations 1
DILUPBiCG:  Solving for Uy, Initial residual = 0.00305626, Final residual = 7.05212e-06, No Iterations 1
DILUPBiCG:  Solving for Uz, Initial residual = 0.00446095, Final residual = 1.98367e-05, No Iterations 1
GAMG:  Solving for p, Initial residual = 0.0534071, Final residual = 0.000508256, No Iterations 4
GAMG:  Solving for p, Initial residual = 0.00880126, Final residual = 7.58048e-05, No Iterations 18
GAMG:  Solving for p, Initial residual = 0.00403406, Final residual = 3.8692e-05, No Iterations 8
time step continuity errors : sum local = 4.85811e-07, global = -1.05405e-07, cumulative = 8.35858e-07
GAMG:  Solving for p, Initial residual = 0.0275641, Final residual = 0.00022857, No Iterations 4
GAMG:  Solving for p, Initial residual = 0.00439182, Final residual = 4.25441e-05, No Iterations 14
GAMG:  Solving for p, Initial residual = 0.00190895, Final residual = 1.89429e-05, No Iterations 10
time step continuity errors : sum local = 2.39e-07, global = -6.07636e-08, cumulative = 7.75094e-07
PIMPLE: iteration 3
DILUPBiCG:  Solving for Ux, Initial residual = 0.00394052, Final residual = 2.6827e-06, No Iterations 2
DILUPBiCG:  Solving for Uy, Initial residual = 0.00075637, Final residual = 6.13125e-06, No Iterations 1
DILUPBiCG:  Solving for Uz, Initial residual = 0.00564752, Final residual = 3.58987e-06, No Iterations 2
GAMG:  Solving for p, Initial residual = 0.0387288, Final residual = 0.000365664, No Iterations 5
GAMG:  Solving for p, Initial residual = 0.00878801, Final residual = 8.08408e-05, No Iterations 13
GAMG:  Solving for p, Initial residual = 0.00428107, Final residual = 4.14302e-05, No Iterations 8
time step continuity errors : sum local = 5.87491e-07, global = -1.30159e-07, cumulative = 6.44935e-07
GAMG:  Solving for p, Initial residual = 0.00237027, Final residual = 2.20445e-05, No Iterations 16
GAMG:  Solving for p, Initial residual = 0.00128805, Final residual = 1.09389e-05, No Iterations 4
GAMG:  Solving for p, Initial residual = 0.000514121, Final residual = 9.26205e-07, No Iterations 30
time step continuity errors : sum local = 1.30529e-08, global = 3.86456e-09, cumulative = 6.488e-07
DILUPBiCG:  Solving for omega, Initial residual = 0.00103916, Final residual = 1.51256e-06, No Iterations 1
DILUPBiCG:  Solving for k, Initial residual = 0.00451811, Final residual = 1.44878e-06, No Iterations 2
ExecutionTime = 67.86 s  ClockTime = 68 s

Courant Number mean: 0.177292 max: 0.393034
Time = 0.478

GAMG:  Solving for cellDisplacementx, Initial residual = 0, Final residual = 0, No Iterations 0
GAMG:  Solving for cellDisplacementy, Initial residual = 0, Final residual = 0, No Iterations 0
GAMG:  Solving for cellDisplacementz, Initial residual = 0, Final residual = 0, No Iterations 0
PIMPLE: iteration 1
DILUPBiCG:  Solving for Ux, Initial residual = 0.0609818, Final residual = 0.000242386, No Iterations 1
DILUPBiCG:  Solving for Uy, Initial residual = 0.0107013, Final residual = 2.46539e-05, No Iterations 1
DILUPBiCG:  Solving for Uz, Initial residual = 0.0268856, Final residual = 5.08433e-05, No Iterations 1
GAMG:  Solving for p, Initial residual = 0.122365, Final residual = 0.000990465, No Iterations 6
GAMG:  Solving for p, Initial residual = 0.014549, Final residual = 0.000136828, No Iterations 20
GAMG:  Solving for p, Initial residual = 0.00674019, Final residual = 5.37331e-05, No Iterations 10
time step continuity errors : sum local = 8.01215e-07, global = 2.08208e-07, cumulative = 8.57008e-07
GAMG:  Solving for p, Initial residual = 0.0520998, Final residual = 0.000510417, No Iterations 4
GAMG:  Solving for p, Initial residual = 0.0072581, Final residual = 6.97871e-05, No Iterations 20
GAMG:  Solving for p, Initial residual = 0.00356751, Final residual = 3.52784e-05, No Iterations 8
time step continuity errors : sum local = 5.28007e-07, global = 1.20037e-07, cumulative = 9.77045e-07
PIMPLE: iteration 2
DILUPBiCG:  Solving for Ux, Initial residual = 0.0171948, Final residual = 0.000103708, No Iterations 1
DILUPBiCG:  Solving for Uy, Initial residual = 0.00312292, Final residual = 7.04744e-06, No Iterations 1
DILUPBiCG:  Solving for Uz, Initial residual = 0.00414925, Final residual = 1.42772e-05, No Iterations 1
GAMG:  Solving for p, Initial residual = 0.0519197, Final residual = 0.000502956, No Iterations 4
GAMG:  Solving for p, Initial residual = 0.0087877, Final residual = 8.32292e-05, No Iterations 18
GAMG:  Solving for p, Initial residual = 0.00427809, Final residual = 4.15411e-05, No Iterations 7
time step continuity errors : sum local = 5.31673e-07, global = 1.67246e-07, cumulative = 1.14429e-06
GAMG:  Solving for p, Initial residual = 0.0267523, Final residual = 0.000220198, No Iterations 4
GAMG:  Solving for p, Initial residual = 0.00440236, Final residual = 3.9533e-05, No Iterations 16
GAMG:  Solving for p, Initial residual = 0.00201337, Final residual = 1.88636e-05, No Iterations 8
time step continuity errors : sum local = 2.42944e-07, global = -8.76242e-08, cumulative = 1.05667e-06
PIMPLE: iteration 3
DILUPBiCG:  Solving for Ux, Initial residual = 0.00413065, Final residual = 2.74878e-06, No Iterations 2
DILUPBiCG:  Solving for Uy, Initial residual = 0.00075664, Final residual = 5.92769e-06, No Iterations 1
DILUPBiCG:  Solving for Uz, Initial residual = 0.0103911, Final residual = 4.04658e-06, No Iterations 2
GAMG:  Solving for p, Initial residual = 0.0389308, Final residual = 0.000313885, No Iterations 5
GAMG:  Solving for p, Initial residual = 0.00860661, Final residual = 7.39263e-05, No Iterations 15
GAMG:  Solving for p, Initial residual = 0.00418063, Final residual = 3.41901e-05, No Iterations 10
time step continuity errors : sum local = 4.94186e-07, global = -1.28408e-07, cumulative = 9.2826e-07
GAMG:  Solving for p, Initial residual = 0.00224668, Final residual = 2.23943e-05, No Iterations 16
GAMG:  Solving for p, Initial residual = 0.00125533, Final residual = 1.21142e-05, No Iterations 4
GAMG:  Solving for p, Initial residual = 0.000509072, Final residual = 8.85575e-07, No Iterations 30
time step continuity errors : sum local = 1.27379e-08, global = 3.80506e-09, cumulative = 9.32065e-07
DILUPBiCG:  Solving for omega, Initial residual = 0.00103357, Final residual = 1.32976e-06, No Iterations 1
DILUPBiCG:  Solving for k, Initial residual = 0.00444807, Final residual = 1.31339e-06, No Iterations 2
ExecutionTime = 77.18 s  ClockTime = 77 s

Courant Number mean: 0.171681 max: 0.381216
Time = 0.479

GAMG:  Solving for cellDisplacementx, Initial residual = 0, Final residual = 0, No Iterations 0
GAMG:  Solving for cellDisplacementy, Initial residual = 0, Final residual = 0, No Iterations 0
GAMG:  Solving for cellDisplacementz, Initial residual = 0, Final residual = 0, No Iterations 0
PIMPLE: iteration 1
DILUPBiCG:  Solving for Ux, Initial residual = 0.0629781, Final residual = 0.000247446, No Iterations 1
DILUPBiCG:  Solving for Uy, Initial residual = 0.0109013, Final residual = 2.45346e-05, No Iterations 1
DILUPBiCG:  Solving for Uz, Initial residual = 0.0225752, Final residual = 2.88204e-05, No Iterations 1
GAMG:  Solving for p, Initial residual = 0.119512, Final residual = 0.000854194, No Iterations 6
GAMG:  Solving for p, Initial residual = 0.0141727, Final residual = 0.000128793, No Iterations 18
GAMG:  Solving for p, Initial residual = 0.00631528, Final residual = 5.36239e-05, No Iterations 10
time step continuity errors : sum local = 7.973e-07, global = 2.0467e-07, cumulative = 1.13674e-06
GAMG:  Solving for p, Initial residual = 0.0516629, Final residual = 0.000455849, No Iterations 4
GAMG:  Solving for p, Initial residual = 0.00708435, Final residual = 6.09309e-05, No Iterations 18
GAMG:  Solving for p, Initial residual = 0.00330958, Final residual = 3.30382e-05, No Iterations 8
time step continuity errors : sum local = 4.91157e-07, global = 1.04835e-07, cumulative = 1.24157e-06
PIMPLE: iteration 2
DILUPBiCG:  Solving for Ux, Initial residual = 0.0173688, Final residual = 0.000104691, No Iterations 1
DILUPBiCG:  Solving for Uy, Initial residual = 0.00319442, Final residual = 7.2066e-06, No Iterations 1
DILUPBiCG:  Solving for Uz, Initial residual = 0.00398801, Final residual = 1.66195e-05, No Iterations 1
GAMG:  Solving for p, Initial residual = 0.0513941, Final residual = 0.000500884, No Iterations 4
GAMG:  Solving for p, Initial residual = 0.00838756, Final residual = 7.4541e-05, No Iterations 18
GAMG:  Solving for p, Initial residual = 0.00379722, Final residual = 3.74876e-05, No Iterations 8
time step continuity errors : sum local = 4.76399e-07, global = -1.06494e-07, cumulative = 1.13508e-06
GAMG:  Solving for p, Initial residual = 0.0265835, Final residual = 0.00022643, No Iterations 4
GAMG:  Solving for p, Initial residual = 0.00421872, Final residual = 4.17511e-05, No Iterations 14
GAMG:  Solving for p, Initial residual = 0.0017869, Final residual = 1.54156e-05, No Iterations 12
time step continuity errors : sum local = 1.96848e-07, global = -5.7374e-08, cumulative = 1.0777e-06
PIMPLE: iteration 3
DILUPBiCG:  Solving for Ux, Initial residual = 0.00399819, Final residual = 2.81196e-06, No Iterations 2
DILUPBiCG:  Solving for Uy, Initial residual = 0.000773741, Final residual = 5.80574e-06, No Iterations 1
DILUPBiCG:  Solving for Uz, Initial residual = 0.00583247, Final residual = 3.92824e-06, No Iterations 2
GAMG:  Solving for p, Initial residual = 0.0394858, Final residual = 0.000358767, No Iterations 5
GAMG:  Solving for p, Initial residual = 0.00921699, Final residual = 7.67305e-05, No Iterations 9
GAMG:  Solving for p, Initial residual = 0.00425699, Final residual = 3.94016e-05, No Iterations 8
time step continuity errors : sum local = 5.64174e-07, global = -1.23496e-07, cumulative = 9.54207e-07
GAMG:  Solving for p, Initial residual = 0.00235724, Final residual = 2.20304e-05, No Iterations 16
GAMG:  Solving for p, Initial residual = 0.00128783, Final residual = 1.14544e-05, No Iterations 4
GAMG:  Solving for p, Initial residual = 0.000516175, Final residual = 8.86247e-07, No Iterations 32
time step continuity errors : sum local = 1.26148e-08, global = 3.71988e-09, cumulative = 9.57926e-07
DILUPBiCG:  Solving for omega, Initial residual = 0.00105842, Final residual = 1.18326e-06, No Iterations 1
DILUPBiCG:  Solving for k, Initial residual = 0.00440202, Final residual = 1.17203e-06, No Iterations 2
bounding k, min: 0 max: 0.000832307 average: 0.000170154
ExecutionTime = 89.33 s  ClockTime = 89 s

Courant Number mean: 0.166126 max: 0.369514
Time = 0.48

GAMG:  Solving for cellDisplacementx, Initial residual = 0, Final residual = 0, No Iterations 0
GAMG:  Solving for cellDisplacementy, Initial residual = 0, Final residual = 0, No Iterations 0
GAMG:  Solving for cellDisplacementz, Initial residual = 0, Final residual = 0, No Iterations 0
PIMPLE: iteration 1
DILUPBiCG:  Solving for Ux, Initial residual = 0.0630525, Final residual = 0.00024667, No Iterations 1
DILUPBiCG:  Solving for Uy, Initial residual = 0.0112467, Final residual = 2.52903e-05, No Iterations 1
DILUPBiCG:  Solving for Uz, Initial residual = 0.022286, Final residual = 3.86394e-05, No Iterations 1
GAMG:  Solving for p, Initial residual = 0.118712, Final residual = 0.000907541, No Iterations 6
GAMG:  Solving for p, Initial residual = 0.0140072, Final residual = 0.000126403, No Iterations 20
GAMG:  Solving for p, Initial residual = 0.00654158, Final residual = 6.49557e-05, No Iterations 8
time step continuity errors : sum local = 9.65354e-07, global = 2.1922e-07, cumulative = 1.17715e-06
GAMG:  Solving for p, Initial residual = 0.0510591, Final residual = 0.000484421, No Iterations 4
GAMG:  Solving for p, Initial residual = 0.00701002, Final residual = 6.50173e-05, No Iterations 20
GAMG:  Solving for p, Initial residual = 0.00345949, Final residual = 3.44631e-05, No Iterations 8
time step continuity errors : sum local = 5.14201e-07, global = 1.16235e-07, cumulative = 1.29338e-06
PIMPLE: iteration 2
DILUPBiCG:  Solving for Ux, Initial residual = 0.0175125, Final residual = 0.000104882, No Iterations 1
DILUPBiCG:  Solving for Uy, Initial residual = 0.00324511, Final residual = 7.1895e-06, No Iterations 1
DILUPBiCG:  Solving for Uz, Initial residual = 0.00389034, Final residual = 1.33491e-05, No Iterations 1
GAMG:  Solving for p, Initial residual = 0.0505232, Final residual = 0.000497553, No Iterations 4
GAMG:  Solving for p, Initial residual = 0.0085309, Final residual = 8.04365e-05, No Iterations 18
GAMG:  Solving for p, Initial residual = 0.00406427, Final residual = 3.89198e-05, No Iterations 8
time step continuity errors : sum local = 4.98232e-07, global = -1.87358e-07, cumulative = 1.10602e-06
GAMG:  Solving for p, Initial residual = 0.0260762, Final residual = 0.000221652, No Iterations 4
GAMG:  Solving for p, Initial residual = 0.0042891, Final residual = 3.8209e-05, No Iterations 16
GAMG:  Solving for p, Initial residual = 0.00191301, Final residual = 1.78121e-05, No Iterations 8
time step continuity errors : sum local = 2.29351e-07, global = -7.80298e-08, cumulative = 1.02799e-06
PIMPLE: iteration 3
DILUPBiCG:  Solving for Ux, Initial residual = 0.00412455, Final residual = 2.8509e-06, No Iterations 2
DILUPBiCG:  Solving for Uy, Initial residual = 0.000775833, Final residual = 5.62205e-06, No Iterations 1
DILUPBiCG:  Solving for Uz, Initial residual = 0.00943408, Final residual = 3.78297e-06, No Iterations 2
GAMG:  Solving for p, Initial residual = 0.0396938, Final residual = 0.000353368, No Iterations 5
GAMG:  Solving for p, Initial residual = 0.00896052, Final residual = 8.44854e-05, No Iterations 9
GAMG:  Solving for p, Initial residual = 0.00422327, Final residual = 3.91328e-05, No Iterations 10
time step continuity errors : sum local = 5.65108e-07, global = -1.45452e-07, cumulative = 8.82543e-07
GAMG:  Solving for p, Initial residual = 0.00227199, Final residual = 2.08179e-05, No Iterations 14
GAMG:  Solving for p, Initial residual = 0.00125514, Final residual = 1.18307e-05, No Iterations 4
GAMG:  Solving for p, Initial residual = 0.000511782, Final residual = 9.78289e-07, No Iterations 28
time step continuity errors : sum local = 1.40443e-08, global = 4.22494e-09, cumulative = 8.86768e-07
DILUPBiCG:  Solving for omega, Initial residual = 0.00108482, Final residual = 1.07791e-06, No Iterations 1
DILUPBiCG:  Solving for k, Initial residual = 0.00436444, Final residual = 1.0224e-06, No Iterations 2
bounding k, min: 0 max: 0.000820792 average: 0.000169022
ExecutionTime = 98.56 s  ClockTime = 99 s

End

