/*---------------------------------------------------------------------------*\
| =========                 |                                                 |
| \\      /  F ield         | OpenFOAM: The Open Source CFD Toolbox           |
|  \\    /   O peration     | Version:  2.3.1                                 |
|   \\  /    A nd           | Web:      www.OpenFOAM.org                      |
|    \\/     M anipulation  |                                                 |
\*---------------------------------------------------------------------------*/
Build  : 2.3.1-262087cdf8db
Exec   : pimpleDyMFoam
Date   : Jun 04 2023
Time   : 16:49:48
Host   : "jcosson-VirtualBox"
PID    : 2917
Case   : /home/jcosson/workspace/henersj_shootingdata/calcs/moderate_deformed/primal/10_intervals_04-06-23/sweep1/interval7
nProcs : 1
sigFpe : Enabling floating point exception trapping (FOAM_SIGFPE).
fileModificationChecking : Monitoring run-time modified files using timeStampMaster
allowSystemOperations : Allowing user-supplied system call operations

// * * * * * * * * * * * * * * * * * * * * * * * * * * * * * * * * * * * * * //
Create time

Create mesh for time = 0.46

Selecting dynamicFvMesh dynamicMotionSolverFvMesh
Selecting motion solver: displacementLaplacian
Selecting motion diffusion: quadratic
Selecting motion diffusion: quadratic
Selecting motion diffusion: inverseDistance

PIMPLE: no residual control data found. Calculations will employ 3 corrector loops

Reading field p

Reading field U

Reading/calculating face flux field phi

Selecting incompressible transport model Newtonian
Selecting turbulence model type RASModel
Selecting RAS turbulence model kOmegaSST
kOmegaSSTCoeffs
{
    alphaK1         0.85034;
    alphaK2         1;
    alphaOmega1     0.5;
    alphaOmega2     0.85616;
    gamma1          0.5532;
    gamma2          0.4403;
    beta1           0.075;
    beta2           0.0828;
    betaStar        0.09;
    a1              0.31;
    c1              10;
    Cmu             0.09;
    b1              1;
    F3              false;
}

Reading/calculating face velocity Uf

No finite volume options present

Courant Number mean: 0.263882 max: 0.60845

Starting time loop

Courant Number mean: 0.263882 max: 0.60845
Time = 0.461

GAMG:  Solving for cellDisplacementx, Initial residual = 0, Final residual = 0, No Iterations 0
GAMG:  Solving for cellDisplacementy, Initial residual = 0, Final residual = 0, No Iterations 0
GAMG:  Solving for cellDisplacementz, Initial residual = 0, Final residual = 0, No Iterations 0
PIMPLE: iteration 1
DILUPBiCG:  Solving for Ux, Initial residual = 0.02539, Final residual = 0.000115025, No Iterations 1
DILUPBiCG:  Solving for Uy, Initial residual = 0.00426801, Final residual = 1.31784e-05, No Iterations 1
DILUPBiCG:  Solving for Uz, Initial residual = 0.154783, Final residual = 0.000513852, No Iterations 1
GAMG:  Solving for p, Initial residual = 0.399679, Final residual = 0.00366153, No Iterations 12
GAMG:  Solving for p, Initial residual = 0.0693709, Final residual = 0.000507704, No Iterations 6
GAMG:  Solving for p, Initial residual = 0.0259636, Final residual = 0.000255741, No Iterations 6
time step continuity errors : sum local = 3.16192e-06, global = 5.7514e-07, cumulative = 5.7514e-07
GAMG:  Solving for p, Initial residual = 0.120092, Final residual = 0.000977697, No Iterations 12
GAMG:  Solving for p, Initial residual = 0.0308497, Final residual = 0.000219408, No Iterations 6
GAMG:  Solving for p, Initial residual = 0.0116952, Final residual = 9.79989e-05, No Iterations 8
time step continuity errors : sum local = 1.19388e-06, global = 2.32466e-07, cumulative = 8.07607e-07
PIMPLE: iteration 2
DILUPBiCG:  Solving for Ux, Initial residual = 0.0113266, Final residual = 4.28256e-05, No Iterations 1
DILUPBiCG:  Solving for Uy, Initial residual = 0.00347533, Final residual = 2.42116e-05, No Iterations 1
DILUPBiCG:  Solving for Uz, Initial residual = 0.0554684, Final residual = 0.000204217, No Iterations 1
GAMG:  Solving for p, Initial residual = 0.116083, Final residual = 0.0010154, No Iterations 12
GAMG:  Solving for p, Initial residual = 0.0327336, Final residual = 0.000319396, No Iterations 6
GAMG:  Solving for p, Initial residual = 0.0128434, Final residual = 0.00011707, No Iterations 8
time step continuity errors : sum local = 1.23921e-06, global = 2.36534e-07, cumulative = 1.04414e-06
GAMG:  Solving for p, Initial residual = 0.051551, Final residual = 0.00049492, No Iterations 10
GAMG:  Solving for p, Initial residual = 0.0151482, Final residual = 0.000137207, No Iterations 8
GAMG:  Solving for p, Initial residual = 0.0060952, Final residual = 4.94172e-05, No Iterations 8
time step continuity errors : sum local = 5.24003e-07, global = 1.00732e-07, cumulative = 1.14487e-06
PIMPLE: iteration 3
DILUPBiCG:  Solving for Ux, Initial residual = 0.00453997, Final residual = 1.21999e-06, No Iterations 2
DILUPBiCG:  Solving for Uy, Initial residual = 0.00294066, Final residual = 2.10704e-06, No Iterations 2
DILUPBiCG:  Solving for Uz, Initial residual = 0.0194274, Final residual = 3.69844e-06, No Iterations 2
GAMG:  Solving for p, Initial residual = 0.033733, Final residual = 0.000260846, No Iterations 5
GAMG:  Solving for p, Initial residual = 0.00741764, Final residual = 7.07337e-05, No Iterations 18
GAMG:  Solving for p, Initial residual = 0.00334721, Final residual = 2.95222e-05, No Iterations 10
time step continuity errors : sum local = 3.42468e-07, global = -8.97744e-08, cumulative = 1.0551e-06
GAMG:  Solving for p, Initial residual = 0.00311857, Final residual = 2.68768e-05, No Iterations 13
GAMG:  Solving for p, Initial residual = 0.00179079, Final residual = 1.63787e-05, No Iterations 8
GAMG:  Solving for p, Initial residual = 0.00060901, Final residual = 8.58549e-07, No Iterations 34
time step continuity errors : sum local = 9.9737e-09, global = 2.9487e-09, cumulative = 1.05805e-06
DILUPBiCG:  Solving for omega, Initial residual = 0.00243278, Final residual = 3.42847e-06, No Iterations 1
DILUPBiCG:  Solving for k, Initial residual = 0.00613284, Final residual = 1.47323e-06, No Iterations 2
ExecutionTime = 13.77 s  ClockTime = 14 s

Courant Number mean: 0.258824 max: 0.581695
Time = 0.462

GAMG:  Solving for cellDisplacementx, Initial residual = 0, Final residual = 0, No Iterations 0
GAMG:  Solving for cellDisplacementy, Initial residual = 0, Final residual = 0, No Iterations 0
GAMG:  Solving for cellDisplacementz, Initial residual = 0, Final residual = 0, No Iterations 0
PIMPLE: iteration 1
DILUPBiCG:  Solving for Ux, Initial residual = 0.0425877, Final residual = 0.000119018, No Iterations 1
DILUPBiCG:  Solving for Uy, Initial residual = 0.0170754, Final residual = 8.04523e-05, No Iterations 1
DILUPBiCG:  Solving for Uz, Initial residual = 0.187684, Final residual = 0.000485123, No Iterations 1
GAMG:  Solving for p, Initial residual = 0.264156, Final residual = 0.0025943, No Iterations 13
GAMG:  Solving for p, Initial residual = 0.0802618, Final residual = 0.000746606, No Iterations 11
GAMG:  Solving for p, Initial residual = 0.0280438, Final residual = 0.000250459, No Iterations 10
time step continuity errors : sum local = 2.53908e-06, global = 6.72848e-07, cumulative = 1.7309e-06
GAMG:  Solving for p, Initial residual = 0.126075, Final residual = 0.00114242, No Iterations 11
GAMG:  Solving for p, Initial residual = 0.0419621, Final residual = 0.000416462, No Iterations 7
GAMG:  Solving for p, Initial residual = 0.0160794, Final residual = 0.000147199, No Iterations 10
time step continuity errors : sum local = 1.52778e-06, global = 3.98607e-07, cumulative = 2.1295e-06
PIMPLE: iteration 2
DILUPBiCG:  Solving for Ux, Initial residual = 0.0104594, Final residual = 4.2782e-05, No Iterations 1
DILUPBiCG:  Solving for Uy, Initial residual = 0.00174889, Final residual = 8.97774e-06, No Iterations 1
DILUPBiCG:  Solving for Uz, Initial residual = 0.0163322, Final residual = 5.0941e-05, No Iterations 1
GAMG:  Solving for p, Initial residual = 0.140237, Final residual = 0.00107125, No Iterations 11
GAMG:  Solving for p, Initial residual = 0.0562088, Final residual = 0.00049072, No Iterations 4
GAMG:  Solving for p, Initial residual = 0.0220405, Final residual = 0.000194461, No Iterations 4
time step continuity errors : sum local = 1.66574e-06, global = -1.89038e-07, cumulative = 1.94046e-06
GAMG:  Solving for p, Initial residual = 0.0796541, Final residual = 0.000654642, No Iterations 9
GAMG:  Solving for p, Initial residual = 0.0331321, Final residual = 0.000276393, No Iterations 4
GAMG:  Solving for p, Initial residual = 0.0126488, Final residual = 9.26667e-05, No Iterations 6
time step continuity errors : sum local = 8.05481e-07, global = -1.54166e-07, cumulative = 1.7863e-06
PIMPLE: iteration 3
DILUPBiCG:  Solving for Ux, Initial residual = 0.00170358, Final residual = 1.6671e-06, No Iterations 2
DILUPBiCG:  Solving for Uy, Initial residual = 0.00187494, Final residual = 7.44878e-07, No Iterations 2
DILUPBiCG:  Solving for Uz, Initial residual = 0.0399093, Final residual = 5.14139e-06, No Iterations 2
GAMG:  Solving for p, Initial residual = 0.0614129, Final residual = 0.00047998, No Iterations 5
GAMG:  Solving for p, Initial residual = 0.0252453, Final residual = 0.000251217, No Iterations 4
GAMG:  Solving for p, Initial residual = 0.00986662, Final residual = 9.51814e-05, No Iterations 4
time step continuity errors : sum local = 9.46919e-07, global = -2.4043e-07, cumulative = 1.54587e-06
GAMG:  Solving for p, Initial residual = 0.0089495, Final residual = 6.71107e-05, No Iterations 9
GAMG:  Solving for p, Initial residual = 0.00718091, Final residual = 4.93204e-05, No Iterations 4
GAMG:  Solving for p, Initial residual = 0.00264027, Final residual = 9.98934e-07, No Iterations 24
time step continuity errors : sum local = 9.96323e-09, global = 2.6157e-09, cumulative = 1.54848e-06
DILUPBiCG:  Solving for omega, Initial residual = 0.00209474, Final residual = 3.0044e-06, No Iterations 1
DILUPBiCG:  Solving for k, Initial residual = 0.0058894, Final residual = 1.07293e-06, No Iterations 2
ExecutionTime = 22.91 s  ClockTime = 23 s

Courant Number mean: 0.254998 max: 0.573165
Time = 0.463

GAMG:  Solving for cellDisplacementx, Initial residual = 0, Final residual = 0, No Iterations 0
GAMG:  Solving for cellDisplacementy, Initial residual = 0, Final residual = 0, No Iterations 0
GAMG:  Solving for cellDisplacementz, Initial residual = 0, Final residual = 0, No Iterations 0
PIMPLE: iteration 1
DILUPBiCG:  Solving for Ux, Initial residual = 0.0321875, Final residual = 0.000130258, No Iterations 1
DILUPBiCG:  Solving for Uy, Initial residual = 0.00495347, Final residual = 1.40213e-05, No Iterations 1
DILUPBiCG:  Solving for Uz, Initial residual = 0.153873, Final residual = 0.000355973, No Iterations 1
GAMG:  Solving for p, Initial residual = 0.193373, Final residual = 0.00187325, No Iterations 8
GAMG:  Solving for p, Initial residual = 0.03674, Final residual = 0.000353454, No Iterations 14
GAMG:  Solving for p, Initial residual = 0.0175872, Final residual = 0.000165206, No Iterations 7
time step continuity errors : sum local = 1.62474e-06, global = -4.09905e-07, cumulative = 1.13858e-06
GAMG:  Solving for p, Initial residual = 0.0792262, Final residual = 0.000664477, No Iterations 4
GAMG:  Solving for p, Initial residual = 0.0197685, Final residual = 0.000175561, No Iterations 16
GAMG:  Solving for p, Initial residual = 0.00987771, Final residual = 8.63812e-05, No Iterations 5
time step continuity errors : sum local = 8.37436e-07, global = -3.23394e-07, cumulative = 8.15185e-07
PIMPLE: iteration 2
DILUPBiCG:  Solving for Ux, Initial residual = 0.00935916, Final residual = 4.91006e-05, No Iterations 1
DILUPBiCG:  Solving for Uy, Initial residual = 0.00155031, Final residual = 4.4922e-06, No Iterations 1
DILUPBiCG:  Solving for Uz, Initial residual = 0.0123636, Final residual = 4.11313e-05, No Iterations 1
GAMG:  Solving for p, Initial residual = 0.0897618, Final residual = 0.000846454, No Iterations 4
GAMG:  Solving for p, Initial residual = 0.0244873, Final residual = 0.000198584, No Iterations 12
GAMG:  Solving for p, Initial residual = 0.0139691, Final residual = 0.000119735, No Iterations 8
time step continuity errors : sum local = 9.80189e-07, global = -2.19639e-07, cumulative = 5.95546e-07
GAMG:  Solving for p, Initial residual = 0.0467753, Final residual = 0.000419258, No Iterations 4
GAMG:  Solving for p, Initial residual = 0.0124673, Final residual = 0.000119181, No Iterations 10
GAMG:  Solving for p, Initial residual = 0.00717197, Final residual = 6.36842e-05, No Iterations 8
time step continuity errors : sum local = 5.1708e-07, global = -1.10758e-07, cumulative = 4.84789e-07
PIMPLE: iteration 3
DILUPBiCG:  Solving for Ux, Initial residual = 0.00221675, Final residual = 8.14814e-07, No Iterations 2
DILUPBiCG:  Solving for Uy, Initial residual = 0.00049991, Final residual = 8.76049e-06, No Iterations 1
DILUPBiCG:  Solving for Uz, Initial residual = 0.0135, Final residual = 9.68896e-07, No Iterations 2
GAMG:  Solving for p, Initial residual = 0.0494962, Final residual = 0.000474723, No Iterations 5
GAMG:  Solving for p, Initial residual = 0.0130714, Final residual = 0.000114637, No Iterations 6
GAMG:  Solving for p, Initial residual = 0.00684234, Final residual = 6.79805e-05, No Iterations 6
time step continuity errors : sum local = 6.19172e-07, global = -1.26829e-07, cumulative = 3.5796e-07
GAMG:  Solving for p, Initial residual = 0.00460895, Final residual = 1.79881e-05, No Iterations 6
GAMG:  Solving for p, Initial residual = 0.0025888, Final residual = 2.33055e-05, No Iterations 4
GAMG:  Solving for p, Initial residual = 0.000941936, Final residual = 9.86824e-07, No Iterations 31
time step continuity errors : sum local = 8.93682e-09, global = 2.59313e-09, cumulative = 3.60553e-07
DILUPBiCG:  Solving for omega, Initial residual = 0.00182667, Final residual = 2.68658e-06, No Iterations 1
DILUPBiCG:  Solving for k, Initial residual = 0.00566622, Final residual = 1.54202e-06, No Iterations 2
ExecutionTime = 32.36 s  ClockTime = 32 s

Courant Number mean: 0.250965 max: 0.564109
Time = 0.464

GAMG:  Solving for cellDisplacementx, Initial residual = 0, Final residual = 0, No Iterations 0
GAMG:  Solving for cellDisplacementy, Initial residual = 0, Final residual = 0, No Iterations 0
GAMG:  Solving for cellDisplacementz, Initial residual = 0, Final residual = 0, No Iterations 0
PIMPLE: iteration 1
DILUPBiCG:  Solving for Ux, Initial residual = 0.0315389, Final residual = 0.000131288, No Iterations 1
DILUPBiCG:  Solving for Uy, Initial residual = 0.00529992, Final residual = 1.36291e-05, No Iterations 1
DILUPBiCG:  Solving for Uz, Initial residual = 0.065186, Final residual = 0.000179521, No Iterations 1
GAMG:  Solving for p, Initial residual = 0.159567, Final residual = 0.00142288, No Iterations 8
GAMG:  Solving for p, Initial residual = 0.0244068, Final residual = 0.000241411, No Iterations 16
GAMG:  Solving for p, Initial residual = 0.0108137, Final residual = 9.01072e-05, No Iterations 10
time step continuity errors : sum local = 9.55044e-07, global = 2.38865e-07, cumulative = 5.99418e-07
GAMG:  Solving for p, Initial residual = 0.0625981, Final residual = 0.000595177, No Iterations 6
GAMG:  Solving for p, Initial residual = 0.0116485, Final residual = 0.000110166, No Iterations 18
GAMG:  Solving for p, Initial residual = 0.00546205, Final residual = 4.31999e-05, No Iterations 10
time step continuity errors : sum local = 4.60038e-07, global = 1.16154e-07, cumulative = 7.15572e-07
PIMPLE: iteration 2
DILUPBiCG:  Solving for Ux, Initial residual = 0.00996234, Final residual = 5.43511e-05, No Iterations 1
DILUPBiCG:  Solving for Uy, Initial residual = 0.00167303, Final residual = 4.4544e-06, No Iterations 1
DILUPBiCG:  Solving for Uz, Initial residual = 0.00629997, Final residual = 1.66014e-05, No Iterations 1
GAMG:  Solving for p, Initial residual = 0.0658125, Final residual = 0.000618433, No Iterations 4
GAMG:  Solving for p, Initial residual = 0.014768, Final residual = 0.000132929, No Iterations 16
GAMG:  Solving for p, Initial residual = 0.0073983, Final residual = 7.3982e-05, No Iterations 5
time step continuity errors : sum local = 6.66994e-07, global = 2.32258e-07, cumulative = 9.4783e-07
GAMG:  Solving for p, Initial residual = 0.0328978, Final residual = 0.000254955, No Iterations 4
GAMG:  Solving for p, Initial residual = 0.00694574, Final residual = 5.86553e-05, No Iterations 16
GAMG:  Solving for p, Initial residual = 0.00340659, Final residual = 3.33222e-05, No Iterations 5
time step continuity errors : sum local = 3.02664e-07, global = 1.07005e-07, cumulative = 1.05483e-06
PIMPLE: iteration 3
DILUPBiCG:  Solving for Ux, Initial residual = 0.00277759, Final residual = 1.00287e-06, No Iterations 2
DILUPBiCG:  Solving for Uy, Initial residual = 0.00045684, Final residual = 6.08627e-06, No Iterations 1
DILUPBiCG:  Solving for Uz, Initial residual = 0.0128281, Final residual = 3.16333e-06, No Iterations 2
GAMG:  Solving for p, Initial residual = 0.0407466, Final residual = 0.000344783, No Iterations 5
GAMG:  Solving for p, Initial residual = 0.00891568, Final residual = 8.43633e-05, No Iterations 15
GAMG:  Solving for p, Initial residual = 0.00405184, Final residual = 3.5105e-05, No Iterations 12
time step continuity errors : sum local = 3.5451e-07, global = -1.06592e-07, cumulative = 9.48243e-07
GAMG:  Solving for p, Initial residual = 0.00259871, Final residual = 2.33651e-05, No Iterations 20
GAMG:  Solving for p, Initial residual = 0.00158263, Final residual = 1.35517e-05, No Iterations 4
GAMG:  Solving for p, Initial residual = 0.000569459, Final residual = 8.69451e-07, No Iterations 32
time step continuity errors : sum local = 8.79999e-09, global = 2.62006e-09, cumulative = 9.50863e-07
DILUPBiCG:  Solving for omega, Initial residual = 0.00160306, Final residual = 2.42263e-06, No Iterations 1
DILUPBiCG:  Solving for k, Initial residual = 0.0054949, Final residual = 1.70253e-06, No Iterations 2
ExecutionTime = 42.59 s  ClockTime = 43 s

Courant Number mean: 0.246692 max: 0.554236
Time = 0.465

GAMG:  Solving for cellDisplacementx, Initial residual = 0, Final residual = 0, No Iterations 0
GAMG:  Solving for cellDisplacementy, Initial residual = 0, Final residual = 0, No Iterations 0
GAMG:  Solving for cellDisplacementz, Initial residual = 0, Final residual = 0, No Iterations 0
PIMPLE: iteration 1
DILUPBiCG:  Solving for Ux, Initial residual = 0.0353654, Final residual = 0.000146692, No Iterations 1
DILUPBiCG:  Solving for Uy, Initial residual = 0.00560556, Final residual = 1.39993e-05, No Iterations 1
DILUPBiCG:  Solving for Uz, Initial residual = 0.0288309, Final residual = 6.3912e-05, No Iterations 1
GAMG:  Solving for p, Initial residual = 0.137476, Final residual = 0.00121935, No Iterations 6
GAMG:  Solving for p, Initial residual = 0.0183912, Final residual = 0.000167369, No Iterations 18
GAMG:  Solving for p, Initial residual = 0.00783409, Final residual = 7.44516e-05, No Iterations 4
time step continuity errors : sum local = 8.30579e-07, global = 3.24549e-07, cumulative = 1.27541e-06
GAMG:  Solving for p, Initial residual = 0.0569376, Final residual = 0.000388365, No Iterations 6
GAMG:  Solving for p, Initial residual = 0.00906635, Final residual = 8.78313e-05, No Iterations 14
GAMG:  Solving for p, Initial residual = 0.00384832, Final residual = 3.37769e-05, No Iterations 12
time step continuity errors : sum local = 3.74317e-07, global = 1.11716e-07, cumulative = 1.38713e-06
PIMPLE: iteration 2
DILUPBiCG:  Solving for Ux, Initial residual = 0.0106793, Final residual = 5.87187e-05, No Iterations 1
DILUPBiCG:  Solving for Uy, Initial residual = 0.00179948, Final residual = 4.64587e-06, No Iterations 1
DILUPBiCG:  Solving for Uz, Initial residual = 0.00535301, Final residual = 2.11571e-05, No Iterations 1
GAMG:  Solving for p, Initial residual = 0.0585358, Final residual = 0.000454353, No Iterations 4
GAMG:  Solving for p, Initial residual = 0.0103973, Final residual = 9.36884e-05, No Iterations 14
GAMG:  Solving for p, Initial residual = 0.00473728, Final residual = 4.39446e-05, No Iterations 4
time step continuity errors : sum local = 4.10759e-07, global = -1.64447e-07, cumulative = 1.22268e-06
GAMG:  Solving for p, Initial residual = 0.0297159, Final residual = 0.000202107, No Iterations 4
GAMG:  Solving for p, Initial residual = 0.00507565, Final residual = 4.48418e-05, No Iterations 12
GAMG:  Solving for p, Initial residual = 0.00224577, Final residual = 1.92536e-05, No Iterations 4
time step continuity errors : sum local = 1.80703e-07, global = -7.03754e-08, cumulative = 1.15231e-06
PIMPLE: iteration 3
DILUPBiCG:  Solving for Ux, Initial residual = 0.00274304, Final residual = 1.03382e-06, No Iterations 2
DILUPBiCG:  Solving for Uy, Initial residual = 0.000482209, Final residual = 7.4837e-06, No Iterations 1
DILUPBiCG:  Solving for Uz, Initial residual = 0.00469469, Final residual = 1.71745e-06, No Iterations 2
GAMG:  Solving for p, Initial residual = 0.0396678, Final residual = 0.000357344, No Iterations 5
GAMG:  Solving for p, Initial residual = 0.00911099, Final residual = 8.82335e-05, No Iterations 15
GAMG:  Solving for p, Initial residual = 0.00443694, Final residual = 3.6167e-05, No Iterations 10
time step continuity errors : sum local = 3.78821e-07, global = -9.72942e-08, cumulative = 1.05501e-06
GAMG:  Solving for p, Initial residual = 0.00268671, Final residual = 2.61539e-05, No Iterations 20
GAMG:  Solving for p, Initial residual = 0.0015279, Final residual = 1.35049e-05, No Iterations 4
GAMG:  Solving for p, Initial residual = 0.000575501, Final residual = 9.03487e-07, No Iterations 38
time step continuity errors : sum local = 9.44439e-09, global = 2.79759e-09, cumulative = 1.05781e-06
DILUPBiCG:  Solving for omega, Initial residual = 0.0014097, Final residual = 2.19801e-06, No Iterations 1
DILUPBiCG:  Solving for k, Initial residual = 0.00534641, Final residual = 1.81208e-06, No Iterations 2
ExecutionTime = 52.81 s  ClockTime = 53 s

Courant Number mean: 0.242193 max: 0.54372
Time = 0.466

GAMG:  Solving for cellDisplacementx, Initial residual = 0, Final residual = 0, No Iterations 0
GAMG:  Solving for cellDisplacementy, Initial residual = 0, Final residual = 0, No Iterations 0
GAMG:  Solving for cellDisplacementz, Initial residual = 0, Final residual = 0, No Iterations 0
PIMPLE: iteration 1
DILUPBiCG:  Solving for Ux, Initial residual = 0.0371314, Final residual = 0.000154038, No Iterations 1
DILUPBiCG:  Solving for Uy, Initial residual = 0.00603508, Final residual = 1.48174e-05, No Iterations 1
DILUPBiCG:  Solving for Uz, Initial residual = 0.0274435, Final residual = 7.41633e-05, No Iterations 1
GAMG:  Solving for p, Initial residual = 0.132938, Final residual = 0.00126848, No Iterations 6
GAMG:  Solving for p, Initial residual = 0.0161966, Final residual = 0.000157274, No Iterations 20
GAMG:  Solving for p, Initial residual = 0.00709548, Final residual = 6.0128e-05, No Iterations 10
time step continuity errors : sum local = 7.09038e-07, global = 1.85425e-07, cumulative = 1.24323e-06
GAMG:  Solving for p, Initial residual = 0.0544195, Final residual = 0.000420612, No Iterations 6
GAMG:  Solving for p, Initial residual = 0.00802927, Final residual = 7.75174e-05, No Iterations 18
GAMG:  Solving for p, Initial residual = 0.0036472, Final residual = 3.10073e-05, No Iterations 10
time step continuity errors : sum local = 3.65e-07, global = 9.51958e-08, cumulative = 1.33843e-06
PIMPLE: iteration 2
DILUPBiCG:  Solving for Ux, Initial residual = 0.0113428, Final residual = 6.32232e-05, No Iterations 1
DILUPBiCG:  Solving for Uy, Initial residual = 0.00191413, Final residual = 4.80361e-06, No Iterations 1
DILUPBiCG:  Solving for Uz, Initial residual = 0.00429642, Final residual = 1.33848e-05, No Iterations 1
GAMG:  Solving for p, Initial residual = 0.0553864, Final residual = 0.000469756, No Iterations 4
GAMG:  Solving for p, Initial residual = 0.0094777, Final residual = 8.24572e-05, No Iterations 18
GAMG:  Solving for p, Initial residual = 0.00472643, Final residual = 4.13405e-05, No Iterations 7
time step continuity errors : sum local = 4.11149e-07, global = 1.11612e-07, cumulative = 1.45004e-06
GAMG:  Solving for p, Initial residual = 0.0281579, Final residual = 0.000195684, No Iterations 4
GAMG:  Solving for p, Initial residual = 0.00455668, Final residual = 4.48544e-05, No Iterations 14
GAMG:  Solving for p, Initial residual = 0.00215022, Final residual = 2.08647e-05, No Iterations 8
time step continuity errors : sum local = 2.09026e-07, global = -7.46097e-08, cumulative = 1.37543e-06
PIMPLE: iteration 3
DILUPBiCG:  Solving for Ux, Initial residual = 0.00299733, Final residual = 1.16628e-06, No Iterations 2
DILUPBiCG:  Solving for Uy, Initial residual = 0.000500864, Final residual = 7.24205e-06, No Iterations 1
DILUPBiCG:  Solving for Uz, Initial residual = 0.00924735, Final residual = 2.57544e-06, No Iterations 2
GAMG:  Solving for p, Initial residual = 0.0390976, Final residual = 0.000336278, No Iterations 5
GAMG:  Solving for p, Initial residual = 0.00886502, Final residual = 8.62119e-05, No Iterations 15
GAMG:  Solving for p, Initial residual = 0.00424051, Final residual = 3.49084e-05, No Iterations 12
time step continuity errors : sum local = 3.89755e-07, global = -1.15088e-07, cumulative = 1.26034e-06
GAMG:  Solving for p, Initial residual = 0.00253701, Final residual = 2.44276e-05, No Iterations 20
GAMG:  Solving for p, Initial residual = 0.00146974, Final residual = 1.37202e-05, No Iterations 4
GAMG:  Solving for p, Initial residual = 0.000558961, Final residual = 9.51143e-07, No Iterations 36
time step continuity errors : sum local = 1.06063e-08, global = 3.12824e-09, cumulative = 1.26347e-06
DILUPBiCG:  Solving for omega, Initial residual = 0.00124056, Final residual = 2.00518e-06, No Iterations 1
DILUPBiCG:  Solving for k, Initial residual = 0.00521501, Final residual = 1.85413e-06, No Iterations 2
ExecutionTime = 66.21 s  ClockTime = 66 s

Courant Number mean: 0.237491 max: 0.532654
Time = 0.467

GAMG:  Solving for cellDisplacementx, Initial residual = 0, Final residual = 0, No Iterations 0
GAMG:  Solving for cellDisplacementy, Initial residual = 0, Final residual = 0, No Iterations 0
GAMG:  Solving for cellDisplacementz, Initial residual = 0, Final residual = 0, No Iterations 0
PIMPLE: iteration 1
DILUPBiCG:  Solving for Ux, Initial residual = 0.0400469, Final residual = 0.000165915, No Iterations 1
DILUPBiCG:  Solving for Uy, Initial residual = 0.00641933, Final residual = 1.55835e-05, No Iterations 1
DILUPBiCG:  Solving for Uz, Initial residual = 0.0180069, Final residual = 3.4646e-05, No Iterations 1
GAMG:  Solving for p, Initial residual = 0.129197, Final residual = 0.00114947, No Iterations 6
GAMG:  Solving for p, Initial residual = 0.0154247, Final residual = 0.000134279, No Iterations 20
GAMG:  Solving for p, Initial residual = 0.0066036, Final residual = 6.38739e-05, No Iterations 10
time step continuity errors : sum local = 7.86638e-07, global = 2.08268e-07, cumulative = 1.47174e-06
GAMG:  Solving for p, Initial residual = 0.0537011, Final residual = 0.00036973, No Iterations 6
GAMG:  Solving for p, Initial residual = 0.00768727, Final residual = 7.31134e-05, No Iterations 16
GAMG:  Solving for p, Initial residual = 0.00334715, Final residual = 3.00514e-05, No Iterations 12
time step continuity errors : sum local = 3.68177e-07, global = 1.1081e-07, cumulative = 1.58255e-06
PIMPLE: iteration 2
DILUPBiCG:  Solving for Ux, Initial residual = 0.0119836, Final residual = 6.75314e-05, No Iterations 1
DILUPBiCG:  Solving for Uy, Initial residual = 0.00203673, Final residual = 5.0443e-06, No Iterations 1
DILUPBiCG:  Solving for Uz, Initial residual = 0.00455896, Final residual = 1.71433e-05, No Iterations 1
GAMG:  Solving for p, Initial residual = 0.0544558, Final residual = 0.000463635, No Iterations 4
GAMG:  Solving for p, Initial residual = 0.00882187, Final residual = 8.16576e-05, No Iterations 16
GAMG:  Solving for p, Initial residual = 0.0040173, Final residual = 3.49871e-05, No Iterations 10
time step continuity errors : sum local = 3.62181e-07, global = -9.53335e-08, cumulative = 1.48722e-06
GAMG:  Solving for p, Initial residual = 0.0277673, Final residual = 0.000198052, No Iterations 4
GAMG:  Solving for p, Initial residual = 0.00426159, Final residual = 3.68827e-05, No Iterations 14
GAMG:  Solving for p, Initial residual = 0.0018664, Final residual = 1.63164e-05, No Iterations 10
time step continuity errors : sum local = 1.69816e-07, global = -4.38192e-08, cumulative = 1.4434e-06
PIMPLE: iteration 3
DILUPBiCG:  Solving for Ux, Initial residual = 0.00305319, Final residual = 1.27198e-06, No Iterations 2
DILUPBiCG:  Solving for Uy, Initial residual = 0.000528757, Final residual = 7.25076e-06, No Iterations 1
DILUPBiCG:  Solving for Uz, Initial residual = 0.00592648, Final residual = 2.48544e-06, No Iterations 2
GAMG:  Solving for p, Initial residual = 0.0390452, Final residual = 0.000340248, No Iterations 5
GAMG:  Solving for p, Initial residual = 0.00895187, Final residual = 8.35396e-05, No Iterations 15
GAMG:  Solving for p, Initial residual = 0.0043307, Final residual = 3.68169e-05, No Iterations 10
time step continuity errors : sum local = 4.27601e-07, global = -1.11334e-07, cumulative = 1.33206e-06
GAMG:  Solving for p, Initial residual = 0.00257297, Final residual = 2.46178e-05, No Iterations 20
GAMG:  Solving for p, Initial residual = 0.00146652, Final residual = 1.29272e-05, No Iterations 4
GAMG:  Solving for p, Initial residual = 0.000564082, Final residual = 8.54577e-07, No Iterations 38
time step continuity errors : sum local = 9.89879e-09, global = 2.9293e-09, cumulative = 1.33499e-06
DILUPBiCG:  Solving for omega, Initial residual = 0.00109484, Final residual = 1.83832e-06, No Iterations 1
DILUPBiCG:  Solving for k, Initial residual = 0.00508833, Final residual = 1.85842e-06, No Iterations 2
ExecutionTime = 78.43 s  ClockTime = 79 s

Courant Number mean: 0.232592 max: 0.521417
Time = 0.468

GAMG:  Solving for cellDisplacementx, Initial residual = 0, Final residual = 0, No Iterations 0
GAMG:  Solving for cellDisplacementy, Initial residual = 0, Final residual = 0, No Iterations 0
GAMG:  Solving for cellDisplacementz, Initial residual = 0, Final residual = 0, No Iterations 0
PIMPLE: iteration 1
DILUPBiCG:  Solving for Ux, Initial residual = 0.0420656, Final residual = 0.000174229, No Iterations 1
DILUPBiCG:  Solving for Uy, Initial residual = 0.0068545, Final residual = 1.65564e-05, No Iterations 1
DILUPBiCG:  Solving for Uz, Initial residual = 0.0207207, Final residual = 5.21436e-05, No Iterations 1
GAMG:  Solving for p, Initial residual = 0.12742, Final residual = 0.00116226, No Iterations 6
GAMG:  Solving for p, Initial residual = 0.0147313, Final residual = 0.000142919, No Iterations 20
GAMG:  Solving for p, Initial residual = 0.00649643, Final residual = 6.31203e-05, No Iterations 10
time step continuity errors : sum local = 8.11986e-07, global = 2.13283e-07, cumulative = 1.54828e-06
GAMG:  Solving for p, Initial residual = 0.052808, Final residual = 0.000386581, No Iterations 6
GAMG:  Solving for p, Initial residual = 0.00738835, Final residual = 6.99264e-05, No Iterations 18
GAMG:  Solving for p, Initial residual = 0.00337103, Final residual = 3.10502e-05, No Iterations 10
time step continuity errors : sum local = 3.98785e-07, global = 1.04698e-07, cumulative = 1.65297e-06
PIMPLE: iteration 2
DILUPBiCG:  Solving for Ux, Initial residual = 0.0126264, Final residual = 7.18454e-05, No Iterations 1
DILUPBiCG:  Solving for Uy, Initial residual = 0.00215147, Final residual = 5.23499e-06, No Iterations 1
DILUPBiCG:  Solving for Uz, Initial residual = 0.00404576, Final residual = 1.3614e-05, No Iterations 1
GAMG:  Solving for p, Initial residual = 0.0532966, Final residual = 0.000475257, No Iterations 4
GAMG:  Solving for p, Initial residual = 0.00870412, Final residual = 7.88486e-05, No Iterations 18
GAMG:  Solving for p, Initial residual = 0.00420977, Final residual = 3.98727e-05, No Iterations 7
time step continuity errors : sum local = 4.33464e-07, global = 1.3772e-07, cumulative = 1.79069e-06
GAMG:  Solving for p, Initial residual = 0.0272163, Final residual = 0.000200003, No Iterations 4
GAMG:  Solving for p, Initial residual = 0.00421508, Final residual = 4.21312e-05, No Iterations 14
GAMG:  Solving for p, Initial residual = 0.00192747, Final residual = 1.71356e-05, No Iterations 10
time step continuity errors : sum local = 1.87594e-07, global = -5.4391e-08, cumulative = 1.7363e-06
PIMPLE: iteration 3
DILUPBiCG:  Solving for Ux, Initial residual = 0.00325173, Final residual = 1.40213e-06, No Iterations 2
DILUPBiCG:  Solving for Uy, Initial residual = 0.000550236, Final residual = 7.19918e-06, No Iterations 1
DILUPBiCG:  Solving for Uz, Initial residual = 0.00875424, Final residual = 2.61942e-06, No Iterations 2
GAMG:  Solving for p, Initial residual = 0.0389478, Final residual = 0.000326429, No Iterations 5
GAMG:  Solving for p, Initial residual = 0.00884352, Final residual = 8.29136e-05, No Iterations 15
GAMG:  Solving for p, Initial residual = 0.00426665, Final residual = 4.05759e-05, No Iterations 10
time step continuity errors : sum local = 4.95478e-07, global = -1.29557e-07, cumulative = 1.60675e-06
GAMG:  Solving for p, Initial residual = 0.00249283, Final residual = 2.23463e-05, No Iterations 20
GAMG:  Solving for p, Initial residual = 0.00141703, Final residual = 1.25416e-05, No Iterations 4
GAMG:  Solving for p, Initial residual = 0.00055181, Final residual = 8.75601e-07, No Iterations 36
time step continuity errors : sum local = 1.06667e-08, global = 3.14162e-09, cumulative = 1.60989e-06
DILUPBiCG:  Solving for omega, Initial residual = 0.000971817, Final residual = 1.69274e-06, No Iterations 1
DILUPBiCG:  Solving for k, Initial residual = 0.00496588, Final residual = 1.81838e-06, No Iterations 2
ExecutionTime = 87.7 s  ClockTime = 88 s

Courant Number mean: 0.227528 max: 0.50979
Time = 0.469

GAMG:  Solving for cellDisplacementx, Initial residual = 0, Final residual = 0, No Iterations 0
GAMG:  Solving for cellDisplacementy, Initial residual = 0, Final residual = 0, No Iterations 0
GAMG:  Solving for cellDisplacementz, Initial residual = 0, Final residual = 0, No Iterations 0
PIMPLE: iteration 1
DILUPBiCG:  Solving for Ux, Initial residual = 0.0447178, Final residual = 0.000184709, No Iterations 1
DILUPBiCG:  Solving for Uy, Initial residual = 0.00723806, Final residual = 1.72994e-05, No Iterations 1
DILUPBiCG:  Solving for Uz, Initial residual = 0.0155416, Final residual = 3.20434e-05, No Iterations 1
GAMG:  Solving for p, Initial residual = 0.125213, Final residual = 0.00108729, No Iterations 6
GAMG:  Solving for p, Initial residual = 0.0144169, Final residual = 0.000129767, No Iterations 20
GAMG:  Solving for p, Initial residual = 0.00624508, Final residual = 5.16842e-05, No Iterations 12
time step continuity errors : sum local = 6.88379e-07, global = 2.07483e-07, cumulative = 1.81737e-06
GAMG:  Solving for p, Initial residual = 0.0524028, Final residual = 0.00035457, No Iterations 6
GAMG:  Solving for p, Initial residual = 0.00723651, Final residual = 7.14489e-05, No Iterations 16
GAMG:  Solving for p, Initial residual = 0.00319373, Final residual = 2.94687e-05, No Iterations 12
time step continuity errors : sum local = 3.90938e-07, global = 1.17726e-07, cumulative = 1.9351e-06
PIMPLE: iteration 2
DILUPBiCG:  Solving for Ux, Initial residual = 0.0132225, Final residual = 7.60261e-05, No Iterations 1
DILUPBiCG:  Solving for Uy, Initial residual = 0.00226744, Final residual = 5.46361e-06, No Iterations 1
DILUPBiCG:  Solving for Uz, Initial residual = 0.00424214, Final residual = 1.57387e-05, No Iterations 1
GAMG:  Solving for p, Initial residual = 0.0528082, Final residual = 0.000469952, No Iterations 4
GAMG:  Solving for p, Initial residual = 0.00837242, Final residual = 8.31751e-05, No Iterations 16
GAMG:  Solving for p, Initial residual = 0.00381958, Final residual = 3.52845e-05, No Iterations 10
time step continuity errors : sum local = 3.96663e-07, global = -1.05136e-07, cumulative = 1.82996e-06
GAMG:  Solving for p, Initial residual = 0.0270156, Final residual = 0.000201937, No Iterations 4
GAMG:  Solving for p, Initial residual = 0.00406376, Final residual = 3.77268e-05, No Iterations 14
GAMG:  Solving for p, Initial residual = 0.00176744, Final residual = 1.66258e-05, No Iterations 10
time step continuity errors : sum local = 1.87921e-07, global = -4.87885e-08, cumulative = 1.78117e-06
PIMPLE: iteration 3
DILUPBiCG:  Solving for Ux, Initial residual = 0.00332317, Final residual = 1.53022e-06, No Iterations 2
DILUPBiCG:  Solving for Uy, Initial residual = 0.000577672, Final residual = 7.08313e-06, No Iterations 1
DILUPBiCG:  Solving for Uz, Initial residual = 0.00653736, Final residual = 2.8638e-06, No Iterations 2
GAMG:  Solving for p, Initial residual = 0.0390568, Final residual = 0.000341274, No Iterations 5
GAMG:  Solving for p, Initial residual = 0.00897282, Final residual = 8.91772e-05, No Iterations 13
GAMG:  Solving for p, Initial residual = 0.00431107, Final residual = 3.54658e-05, No Iterations 12
time step continuity errors : sum local = 4.4771e-07, global = -1.29446e-07, cumulative = 1.65173e-06
GAMG:  Solving for p, Initial residual = 0.00250894, Final residual = 2.32464e-05, No Iterations 20
GAMG:  Solving for p, Initial residual = 0.00141663, Final residual = 1.2269e-05, No Iterations 4
GAMG:  Solving for p, Initial residual = 0.000552609, Final residual = 9.21473e-07, No Iterations 36
time step continuity errors : sum local = 1.15872e-08, global = 3.41098e-09, cumulative = 1.65514e-06
DILUPBiCG:  Solving for omega, Initial residual = 0.000872907, Final residual = 1.55878e-06, No Iterations 1
DILUPBiCG:  Solving for k, Initial residual = 0.00485227, Final residual = 1.76119e-06, No Iterations 2
ExecutionTime = 99.1 s  ClockTime = 99 s

Courant Number mean: 0.222305 max: 0.497668
Time = 0.47

GAMG:  Solving for cellDisplacementx, Initial residual = 0, Final residual = 0, No Iterations 0
GAMG:  Solving for cellDisplacementy, Initial residual = 0, Final residual = 0, No Iterations 0
GAMG:  Solving for cellDisplacementz, Initial residual = 0, Final residual = 0, No Iterations 0
PIMPLE: iteration 1
DILUPBiCG:  Solving for Ux, Initial residual = 0.0467255, Final residual = 0.000192845, No Iterations 1
DILUPBiCG:  Solving for Uy, Initial residual = 0.00766875, Final residual = 1.82489e-05, No Iterations 1
DILUPBiCG:  Solving for Uz, Initial residual = 0.0181548, Final residual = 4.34943e-05, No Iterations 1
GAMG:  Solving for p, Initial residual = 0.124044, Final residual = 0.00108782, No Iterations 6
GAMG:  Solving for p, Initial residual = 0.0141191, Final residual = 0.000135605, No Iterations 20
GAMG:  Solving for p, Initial residual = 0.00627379, Final residual = 5.14159e-05, No Iterations 12
time step continuity errors : sum local = 7.08203e-07, global = 2.08638e-07, cumulative = 1.86378e-06
GAMG:  Solving for p, Initial residual = 0.0518661, Final residual = 0.000364562, No Iterations 6
GAMG:  Solving for p, Initial residual = 0.00710518, Final residual = 6.61334e-05, No Iterations 18
GAMG:  Solving for p, Initial residual = 0.00326005, Final residual = 3.07207e-05, No Iterations 10
time step continuity errors : sum local = 4.22698e-07, global = 1.10842e-07, cumulative = 1.97462e-06
PIMPLE: iteration 2
DILUPBiCG:  Solving for Ux, Initial residual = 0.0138171, Final residual = 8.00279e-05, No Iterations 1
DILUPBiCG:  Solving for Uy, Initial residual = 0.00237787, Final residual = 5.65514e-06, No Iterations 1
DILUPBiCG:  Solving for Uz, Initial residual = 0.00387182, Final residual = 1.36666e-05, No Iterations 1
GAMG:  Solving for p, Initial residual = 0.0520798, Final residual = 0.000477538, No Iterations 4
GAMG:  Solving for p, Initial residual = 0.00837421, Final residual = 7.74605e-05, No Iterations 18
GAMG:  Solving for p, Initial residual = 0.00399181, Final residual = 3.97987e-05, No Iterations 7
time step continuity errors : sum local = 4.64656e-07, global = 1.58895e-07, cumulative = 2.13351e-06
GAMG:  Solving for p, Initial residual = 0.0266674, Final residual = 0.000202917, No Iterations 4
GAMG:  Solving for p, Initial residual = 0.00407743, Final residual = 3.52065e-05, No Iterations 16
GAMG:  Solving for p, Initial residual = 0.00184122, Final residual = 1.68491e-05, No Iterations 8
time step continuity errors : sum local = 1.97988e-07, global = -6.81718e-08, cumulative = 2.06534e-06
PIMPLE: iteration 3
DILUPBiCG:  Solving for Ux, Initial residual = 0.003491, Final residual = 1.6474e-06, No Iterations 2
DILUPBiCG:  Solving for Uy, Initial residual = 0.000599104, Final residual = 7.02816e-06, No Iterations 1
DILUPBiCG:  Solving for Uz, Initial residual = 0.00861767, Final residual = 2.76598e-06, No Iterations 2
GAMG:  Solving for p, Initial residual = 0.0390459, Final residual = 0.000324568, No Iterations 5
GAMG:  Solving for p, Initial residual = 0.00886355, Final residual = 7.6604e-05, No Iterations 15
GAMG:  Solving for p, Initial residual = 0.00428652, Final residual = 3.5942e-05, No Iterations 10
time step continuity errors : sum local = 4.7144e-07, global = -1.23177e-07, cumulative = 1.94216e-06
GAMG:  Solving for p, Initial residual = 0.00244185, Final residual = 2.29782e-05, No Iterations 20
GAMG:  Solving for p, Initial residual = 0.00137846, Final residual = 1.2578e-05, No Iterations 4
GAMG:  Solving for p, Initial residual = 0.000541979, Final residual = 8.79771e-07, No Iterations 36
time step continuity errors : sum local = 1.1505e-08, global = 3.38612e-09, cumulative = 1.94555e-06
DILUPBiCG:  Solving for omega, Initial residual = 0.000799742, Final residual = 1.41662e-06, No Iterations 1
DILUPBiCG:  Solving for k, Initial residual = 0.00475074, Final residual = 1.68645e-06, No Iterations 2
ExecutionTime = 104.7 s  ClockTime = 105 s

End

